new line.HV_F0_L0 bus1=HV_F0_N157.1.2.3 bus2=HV_F0_N235.1.2.3 phases=3 length=0.052207 units=km linecode=lc_183-3ph
new line.HV_F0_L1 bus1=HV_F0_N312.1.2.3 bus2=HV_F0_N224.1.2.3 phases=3 length=0.034327 units=km linecode=lc_2-3ph
new line.HV_F0_L2 bus1=HV_F0_N568.1.2.3 bus2=HV_F0_N525.1.2.3 phases=3 length=0.114448 units=km linecode=lc_183-3ph
new line.HV_F0_L3 bus1=HV_F0_N346.1.2.3 bus2=HV_F0_N505.1.2.3 phases=3 length=0.046135 units=km linecode=lc_2-3ph
new line.HV_F0_L4 bus1=HV_F0_N351.1.2.3 bus2=HV_F0_N83.1.2.3 phases=3 length=0.004251 units=km linecode=lc_2-3ph
new line.HV_F0_L5 bus1=HV_F0_N83.1.2.3 bus2=HV_F0_N341.1.2.3 phases=3 length=0.058391 units=km linecode=lc_2-3ph
new line.HV_F0_L6 bus1=HV_F0_N40.1.2.3 bus2=HV_F0_N592.1.2.3 phases=3 length=0.282317 units=km linecode=lc_2-3ph
new line.HV_F0_L7 bus1=HV_F0_N587.1.2.3 bus2=HV_F0_N8.1.2.3 phases=3 length=0.0309 units=km linecode=lc_183-3ph
new line.HV_F0_L8 bus1=HV_F0_N185.1.2.3 bus2=HV_F0_N421.1.2.3 phases=3 length=0.000501 units=km linecode=lc_183-3ph
new line.HV_F0_L9 bus1=HV_F0_N517.1.2.3 bus2=HV_F0_N506.1.2.3 phases=3 length=0.110598 units=km linecode=lc_183-3ph
new line.HV_F0_L10 bus1=HV_F0_N535.1.2.3 bus2=HV_F0_N403.1.2.3 phases=3 length=0.055253 units=km linecode=lc_2-3ph
new line.HV_F0_L11 bus1=HV_F0_N184.1.2.3 bus2=HV_F0_N440.1.2.3 phases=3 length=0.000253 units=km linecode=lc_2-3ph
new line.HV_F0_L12 bus1=HV_F0_N124.1.2.3 bus2=HV_F0_N113.1.2.3 phases=3 length=0.02749 units=km linecode=lc_2-3ph
new line.HV_F0_L13 bus1=HV_F0_N191.1.2.3 bus2=HV_F0_N437.1.2.3 phases=3 length=0.040404 units=km linecode=lc_183-3ph
new line.HV_F0_L14 bus1=HV_F0_N523.1.2.3 bus2=HV_F0_N367.1.2.3 phases=3 length=0.01599 units=km linecode=lc_2-3ph
new line.HV_F0_L15 bus1=HV_F0_N235.1.2.3 bus2=HV_F0_N348.1.2.3 phases=3 length=0.046136 units=km linecode=lc_183-3ph
new line.HV_F0_L16 bus1=HV_F0_N348.1.2.3 bus2=HV_F0_N177.1.2.3 phases=3 length=0.041069 units=km linecode=lc_183-3ph
new line.HV_F0_L17 bus1=HV_F0_N100.1.2.3 bus2=HV_F0_N40.1.2.3 phases=3 length=0.060923 units=km linecode=lc_183-3ph
new line.HV_F0_L18 bus1=HV_F0_N546.1.2.3 bus2=HV_F0_N538.1.2.3 phases=3 length=0.099924 units=km linecode=lc_183-3ph
new line.HV_F0_L19 bus1=HV_F0_N496.1.2.3 bus2=HV_F0_N401.1.2.3 phases=3 length=0.000377 units=km linecode=lc_2-3ph
new line.HV_F0_L20 bus1=HV_F0_N406.1.2.3 bus2=HV_F0_N496.1.2.3 phases=3 length=0.013783 units=km linecode=lc_2-3ph
new line.HV_F0_L21 bus1=HV_F0_N578.1.2.3 bus2=HV_F0_N129.1.2.3 phases=3 length=0.007932 units=km linecode=lc_2-3ph
new line.HV_F0_L22 bus1=HV_F0_N117.1.2.3 bus2=HV_F0_N115.1.2.3 phases=3 length=0.047596 units=km linecode=lc_168-3ph
new line.HV_F0_L23 bus1=HV_F0_N100.1.2.3 bus2=HV_F0_N571.1.2.3 phases=3 length=0.108468 units=km linecode=lc_183-3ph
new line.HV_F0_L24 bus1=HV_F0_N304.1.2.3 bus2=HV_F0_N325.1.2.3 phases=3 length=0.031069 units=km linecode=lc_2-3ph
new line.HV_F0_L25 bus1=HV_F0_N539.1.2.3 bus2=HV_F0_N493.1.2.3 phases=3 length=0.056156 units=km linecode=lc_2-3ph
new line.HV_F0_L26 bus1=HV_F0_N493.1.2.3 bus2=HV_F0_N547.1.2.3 phases=3 length=0.000629 units=km linecode=lc_2-3ph
new line.HV_F0_L27 bus1=HV_F0_N60.1.2.3 bus2=HV_F0_N444.1.2.3 phases=3 length=0.077541 units=km linecode=lc_2-3ph
new line.HV_F0_L28 bus1=HV_F0_N72.1.2.3 bus2=HV_F0_N206.1.2.3 phases=3 length=0.010157 units=km linecode=lc_2-3ph
new line.HV_F0_L29 bus1=HV_F0_N568.1.2.3 bus2=HV_F0_N84.1.2.3 phases=3 length=0.001011 units=km linecode=lc_46-3ph
new line.HV_F0_L30 bus1=HV_F0_N341.1.2.3 bus2=HV_F0_N145.1.2.3 phases=3 length=0.019749 units=km linecode=lc_2-3ph
new line.HV_F0_L31 bus1=HV_F0_N145.1.2.3 bus2=HV_F0_N331.1.2.3 phases=3 length=0.002448 units=km linecode=lc_2-3ph
new line.HV_F0_L32 bus1=HV_F0_N217.1.2.3 bus2=HV_F0_N59.1.2.3 phases=3 length=0.121406 units=km linecode=lc_2-3ph
new line.HV_F0_L33 bus1=HV_F0_N394.1.2.3 bus2=HV_F0_N217.1.2.3 phases=3 length=0.110716 units=km linecode=lc_2-3ph
new line.HV_F0_L34 bus1=HV_F0_N439.1.2.3 bus2=HV_F0_N270.1.2.3 phases=3 length=0.001003 units=km linecode=lc_168-3ph
new line.HV_F0_L35 bus1=HV_F0_N221.1.2.3 bus2=HV_F0_N643.1.2.3 phases=3 length=0.075078 units=km linecode=lc_44-3ph
new line.HV_F0_L36 bus1=HV_F0_N481.1.2.3 bus2=HV_F0_N221.1.2.3 phases=3 length=0.074055 units=km linecode=lc_44-3ph
new line.HV_F0_L37 bus1=HV_F0_N476.1.2.3 bus2=HV_F0_N483.1.2.3 phases=3 length=0.041887 units=km linecode=lc_2-3ph
new line.HV_F0_L38 bus1=HV_F0_N214.1.2.3 bus2=HV_F0_N94.1.2.3 phases=3 length=0.006003 units=km linecode=lc_2-3ph
new line.HV_F0_L39 bus1=HV_F0_N365.1.2.3 bus2=HV_F0_N627.1.2.3 phases=3 length=0.098349 units=km linecode=lc_183-3ph
new line.HV_F0_L40 bus1=HV_F0_N623.1.2.3 bus2=HV_F0_N252.1.2.3 phases=3 length=0.07072 units=km linecode=lc_93-3ph
new line.HV_F0_L41 bus1=HV_F0_N515.1.2.3 bus2=HV_F0_N519.1.2.3 phases=3 length=0.031411 units=km linecode=lc_2-3ph
new line.HV_F0_L42 bus1=HV_F0_N627.1.2.3 bus2=HV_F0_N638.1.2.3 phases=3 length=0.04807 units=km linecode=lc_183-3ph
new line.HV_F0_L43 bus1=HV_F0_N638.1.2.3 bus2=HV_F0_N438.1.2.3 phases=3 length=0.124431 units=km linecode=lc_183-3ph
new line.HV_F0_L44 bus1=HV_F0_N252.1.2.3 bus2=HV_F0_N263.1.2.3 phases=3 length=0.053132 units=km linecode=lc_93-3ph
new line.HV_F0_L45 bus1=HV_F0_N9.1.2.3 bus2=HV_F0_N277.1.2.3 phases=3 length=0.108987 units=km linecode=lc_168-3ph
new line.HV_F0_L46 bus1=HV_F0_N263.1.2.3 bus2=HV_F0_N274.1.2.3 phases=3 length=0.081305 units=km linecode=lc_93-3ph
new line.HV_F0_L47 bus1=HV_F0_N274.1.2.3 bus2=HV_F0_N257.1.2.3 phases=3 length=0.074854 units=km linecode=lc_93-3ph
new line.HV_F0_L48 bus1=HV_F0_N235.1.2.3 bus2=HV_F0_N237.1.2.3 phases=3 length=0.100901 units=km linecode=lc_183-3ph
new line.HV_F0_L49 bus1=HV_F0_N5.1.2.3 bus2=HV_F0_N36.1.2.3 phases=3 length=0.127645 units=km linecode=lc_183-3ph
new line.HV_F0_L50 bus1=HV_F0_N118.1.2.3 bus2=HV_F0_N398.1.2.3 phases=3 length=0.006014 units=km linecode=lc_2-3ph
new line.HV_F0_L51 bus1=HV_F0_N120.1.2.3 bus2=HV_F0_N125.1.2.3 phases=3 length=0.099644 units=km linecode=lc_2-3ph
new line.HV_F0_L52 bus1=HV_F0_N484.1.2.3 bus2=HV_F0_N75.1.2.3 phases=3 length=0.119777 units=km linecode=lc_183-3ph
new line.HV_F0_L53 bus1=HV_F0_N188.1.2.3 bus2=HV_F0_N128.1.2.3 phases=3 length=0.003393 units=km linecode=lc_2-3ph
new line.HV_F0_L54 bus1=HV_F0_N128.1.2.3 bus2=HV_F0_N214.1.2.3 phases=3 length=0.046874 units=km linecode=lc_2-3ph
new line.HV_F0_L55 bus1=HV_F0_N372.1.2.3 bus2=HV_F0_N139.1.2.3 phases=3 length=0.095278 units=km linecode=lc_183-3ph
new line.HV_F0_L56 bus1=HV_F0_N344.1.2.3 bus2=HV_F0_N389.1.2.3 phases=3 length=0.001345 units=km linecode=lc_183-3ph
new line.HV_F0_L57 bus1=HV_F0_N347.1.2.3 bus2=HV_F0_N380.1.2.3 phases=3 length=0.012107 units=km linecode=lc_2-3ph
new line.HV_F0_L58 bus1=HV_F0_N401.1.2.3 bus2=HV_F0_N289.1.2.3 phases=3 length=0.026886 units=km linecode=lc_2-3ph
new line.HV_F0_L59 bus1=HV_F0_N81.1.2.3 bus2=HV_F0_N12.1.2.3 phases=3 length=0.123864 units=km linecode=lc_183-3ph
new line.HV_F0_L60 bus1=HV_F0_N12.1.2.3 bus2=HV_F0_N50.1.2.3 phases=3 length=0.115305 units=km linecode=lc_183-3ph
new line.HV_F0_L61 bus1=HV_F0_N628.1.2.3 bus2=HV_F0_N254.1.2.3 phases=3 length=0.015068 units=km linecode=lc_2-3ph
new line.HV_F0_L62 bus1=HV_F0_N113.1.2.3 bus2=HV_F0_N41.1.2.3 phases=3 length=0.028033 units=km linecode=lc_2-3ph
new line.HV_F0_L63 bus1=HV_F0_N400.1.2.3 bus2=HV_F0_N408.1.2.3 phases=3 length=0.114315 units=km linecode=lc_183-3ph
new line.HV_F0_L64 bus1=HV_F0_N408.1.2.3 bus2=HV_F0_N372.1.2.3 phases=3 length=0.119695 units=km linecode=lc_183-3ph
new line.HV_F0_L65 bus1=HV_F0_N290.1.2.3 bus2=HV_F0_N318.1.2.3 phases=3 length=0.02658 units=km linecode=lc_183-3ph
new line.HV_F0_L66 bus1=HV_F0_N340.1.2.3 bus2=HV_F0_N290.1.2.3 phases=3 length=0.093491 units=km linecode=lc_183-3ph
new line.HV_F0_L67 bus1=HV_F0_N320.1.2.3 bus2=HV_F0_N340.1.2.3 phases=3 length=0.126404 units=km linecode=lc_183-3ph
new line.HV_F0_L68 bus1=HV_F0_N175.1.2.3 bus2=HV_F0_N328.1.2.3 phases=3 length=0.048177 units=km linecode=lc_2-3ph
new line.HV_F0_L69 bus1=HV_F0_N237.1.2.3 bus2=HV_F0_N609.1.2.3 phases=3 length=0.118371 units=km linecode=lc_183-3ph
new line.HV_F0_L70 bus1=HV_F0_N158.1.2.3 bus2=HV_F0_N165.1.2.3 phases=3 length=0.007748 units=km linecode=lc_2-3ph
new line.HV_F0_L71 bus1=HV_F0_N165.1.2.3 bus2=HV_F0_N176.1.2.3 phases=3 length=0.041994 units=km linecode=lc_2-3ph
new line.HV_F0_L72 bus1=HV_F0_N534.1.2.3 bus2=HV_F0_N544.1.2.3 phases=3 length=0.001487 units=km linecode=lc_2-3ph
new line.HV_F0_L73 bus1=HV_F0_N610.1.2.3 bus2=HV_F0_N599.1.2.3 phases=3 length=0.047567 units=km linecode=lc_2-3ph
new line.HV_F0_L74 bus1=HV_F0_N510.1.2.3 bus2=HV_F0_N15.1.2.3 phases=3 length=0.10498 units=km linecode=lc_2-3ph
new line.HV_F0_L75 bus1=HV_F0_N385.1.2.3 bus2=HV_F0_N555.1.2.3 phases=3 length=0.097376 units=km linecode=lc_183-3ph
new line.HV_F0_L76 bus1=HV_F0_N29.1.2.3 bus2=HV_F0_N482.1.2.3 phases=3 length=0.007001 units=km linecode=lc_2-3ph
new line.HV_F0_L77 bus1=HV_F0_N51.1.2.3 bus2=HV_F0_N499.1.2.3 phases=3 length=0.100123 units=km linecode=lc_183-3ph
new line.HV_F0_L78 bus1=HV_F0_N242.1.2.3 bus2=HV_F0_N91.1.2.3 phases=3 length=0.053107 units=km linecode=lc_2-3ph
new line.HV_F0_L79 bus1=HV_F0_N284.1.2.3 bus2=HV_F0_N141.1.2.3 phases=3 length=0.024096 units=km linecode=lc_2-3ph
new line.HV_F0_L80 bus1=HV_F0_N181.1.2.3 bus2=HV_F0_N118.1.2.3 phases=3 length=0.051984 units=km linecode=lc_2-3ph
new line.HV_F0_L81 bus1=HV_F0_N605.1.2.3 bus2=HV_F0_N96.1.2.3 phases=3 length=0.105134 units=km linecode=lc_183-3ph
new line.HV_F0_L82 bus1=HV_F0_N91.1.2.3 bus2=HV_F0_N98.1.2.3 phases=3 length=0.009479 units=km linecode=lc_2-3ph
new line.HV_F0_L83 bus1=HV_F0_N299.1.2.3 bus2=HV_F0_N77.1.2.3 phases=3 length=0.017402 units=km linecode=lc_2-3ph
new line.HV_F0_L84 bus1=HV_F0_N92.1.2.3 bus2=HV_F0_N100.1.2.3 phases=3 length=0.126241 units=km linecode=lc_183-3ph
new line.HV_F0_L85 bus1=HV_F0_N606.1.2.3 bus2=HV_F0_N16.1.2.3 phases=3 length=0.072374 units=km linecode=lc_2-3ph
new line.HV_F0_L86 bus1=HV_F0_N35.1.2.3 bus2=HV_F0_N626.1.2.3 phases=3 length=0.000752 units=km linecode=lc_2-3ph
new line.HV_F0_L87 bus1=HV_F0_N98.1.2.3 bus2=HV_F0_N103.1.2.3 phases=3 length=0.060807 units=km linecode=lc_2-3ph
new line.HV_F0_L88 bus1=HV_F0_N103.1.2.3 bus2=HV_F0_N534.1.2.3 phases=3 length=0.056249 units=km linecode=lc_2-3ph
new line.HV_F0_L89 bus1=HV_F0_N448.1.2.3 bus2=HV_F0_N205.1.2.3 phases=3 length=0.060604 units=km linecode=lc_2-3ph
new line.HV_F0_L90 bus1=HV_F0_N547.1.2.3 bus2=HV_F0_N542.1.2.3 phases=3 length=0.026733 units=km linecode=lc_2-3ph
new line.HV_F0_L91 bus1=HV_F0_N417.1.2.3 bus2=HV_F0_N423.1.2.3 phases=3 length=0.02878 units=km linecode=lc_2-3ph
new line.HV_F0_L92 bus1=HV_F0_N205.1.2.3 bus2=HV_F0_N213.1.2.3 phases=3 length=0.030135 units=km linecode=lc_2-3ph
new line.HV_F0_L93 bus1=HV_F0_N498.1.2.3 bus2=HV_F0_N500.1.2.3 phases=3 length=0.090299 units=km linecode=lc_2-3ph
new line.HV_F0_L94 bus1=HV_F0_N53.1.2.3 bus2=HV_F0_N436.1.2.3 phases=3 length=0.075278 units=km linecode=lc_183-3ph
new line.HV_F0_L95 bus1=HV_F0_N437.1.2.3 bus2=HV_F0_N53.1.2.3 phases=3 length=0.103351 units=km linecode=lc_183-3ph
new line.HV_F0_L96 bus1=HV_F0_N582.1.2.3 bus2=HV_F0_N394.1.2.3 phases=3 length=0.023692 units=km linecode=lc_2-3ph
new line.HV_F0_L97 bus1=HV_F0_N213.1.2.3 bus2=HV_F0_N222.1.2.3 phases=3 length=0.043531 units=km linecode=lc_2-3ph
new line.HV_F0_L98 bus1=HV_F0_N152.1.2.3 bus2=HV_F0_N226.1.2.3 phases=3 length=0.005055 units=km linecode=lc_2-3ph
new line.HV_F0_L99 bus1=HV_F0_N622.1.2.3 bus2=HV_F0_N4.1.2.3 phases=3 length=0.070122 units=km linecode=lc_2-3ph
new line.HV_F0_L100 bus1=HV_F0_N427.1.2.3 bus2=HV_F0_N412.1.2.3 phases=3 length=0.203585 units=km linecode=lc_46-3ph
new line.HV_F0_L101 bus1=HV_F0_N231.1.2.3 bus2=HV_F0_N416.1.2.3 phases=3 length=0.143095 units=km linecode=lc_2-3ph
new line.HV_F0_L102 bus1=HV_F0_N222.1.2.3 bus2=HV_F0_N231.1.2.3 phases=3 length=0.061552 units=km linecode=lc_2-3ph
new line.HV_F0_L103 bus1=HV_F0_N87.1.2.3 bus2=HV_F0_N70.1.2.3 phases=3 length=0.038254 units=km linecode=lc_2-3ph
new line.HV_F0_L104 bus1=HV_F0_N134.1.2.3 bus2=HV_F0_N160.1.2.3 phases=3 length=0.172066 units=km linecode=lc_46-3ph
new line.HV_F0_L105 bus1=HV_F0_N170.1.2.3 bus2=HV_F0_N133.1.2.3 phases=3 length=0.272399 units=km linecode=lc_2-3ph
new line.HV_F0_L106 bus1=HV_F0_N453.1.2.3 bus2=HV_F0_N122.1.2.3 phases=3 length=0.088246 units=km linecode=lc_25-3ph
new line.HV_F0_L107 bus1=HV_F0_N71.1.2.3 bus2=HV_F0_N236.1.2.3 phases=3 length=0.087316 units=km linecode=lc_183-3ph
new line.HV_F0_L108 bus1=HV_F0_N325.1.2.3 bus2=HV_F0_N351.1.2.3 phases=3 length=0.057345 units=km linecode=lc_2-3ph
new line.HV_F0_L109 bus1=HV_F0_N579.1.2.3 bus2=HV_F0_N576.1.2.3 phases=3 length=0.000999 units=km linecode=lc_44-3ph
new line.HV_F0_L110 bus1=HV_F0_N441.1.2.3 bus2=HV_F0_N415.1.2.3 phases=3 length=0.065312 units=km linecode=lc_170-3ph
new line.HV_F0_L111 bus1=HV_F0_N415.1.2.3 bus2=HV_F0_N267.1.2.3 phases=3 length=0.104662 units=km linecode=lc_170-3ph
new line.HV_F0_L112 bus1=HV_F0_N8.1.2.3 bus2=HV_F0_N243.1.2.3 phases=3 length=0.055369 units=km linecode=lc_2-3ph
new line.HV_F0_L113 bus1=HV_F0_N367.1.2.3 bus2=HV_F0_N350.1.2.3 phases=3 length=0.044578 units=km linecode=lc_2-3ph
new line.HV_F0_L114 bus1=HV_F0_N574.1.2.3 bus2=HV_F0_N272.1.2.3 phases=3 length=0.097377 units=km linecode=lc_26-3ph
new line.HV_F0_L115 bus1=HV_F0_N57.1.2.3 bus2=HV_F0_N202.1.2.3 phases=3 length=0.002249 units=km linecode=lc_2-3ph
new line.HV_F0_L116 bus1=HV_F0_N86.1.2.3 bus2=HV_F0_N71.1.2.3 phases=3 length=0.096962 units=km linecode=lc_183-3ph
new line.HV_F0_L117 bus1=HV_F0_N79.1.2.3 bus2=HV_F0_N86.1.2.3 phases=3 length=0.086074 units=km linecode=lc_183-3ph
new line.HV_F0_L118 bus1=HV_F0_N251.1.2.3 bus2=HV_F0_N458.1.2.3 phases=3 length=0.060509 units=km linecode=lc_2-3ph
new line.HV_F0_L119 bus1=HV_F0_N190.1.2.3 bus2=HV_F0_N171.1.2.3 phases=3 length=0.049822 units=km linecode=lc_2-3ph
new line.HV_F0_L120 bus1=HV_F0_N365.1.2.3 bus2=HV_F0_N564.1.2.3 phases=3 length=0.000958 units=km linecode=lc_183-3ph
new line.HV_F0_L121 bus1=HV_F0_N255.1.2.3 bus2=HV_F0_N251.1.2.3 phases=3 length=0.029025 units=km linecode=lc_2-3ph
new line.HV_F0_L122 bus1=HV_F0_N260.1.2.3 bus2=HV_F0_N255.1.2.3 phases=3 length=0.042906 units=km linecode=lc_2-3ph
new line.HV_F0_L123 bus1=HV_F0_N227.1.2.3 bus2=HV_F0_N399.1.2.3 phases=3 length=0.110531 units=km linecode=lc_183-3ph
new line.HV_F0_L124 bus1=HV_F0_N634.1.2.3 bus2=HV_F0_N283.1.2.3 phases=3 length=0.031312 units=km linecode=lc_2-3ph
new line.HV_F0_L125 bus1=HV_F0_N302.1.2.3 bus2=HV_F0_N634.1.2.3 phases=3 length=0.000505 units=km linecode=lc_2-3ph
new line.HV_F0_L126 bus1=HV_F0_N243.1.2.3 bus2=HV_F0_N269.1.2.3 phases=3 length=0.133437 units=km linecode=lc_2-3ph
new line.HV_F0_L127 bus1=HV_F0_N269.1.2.3 bus2=HV_F0_N260.1.2.3 phases=3 length=0.061364 units=km linecode=lc_2-3ph
new line.HV_F0_L128 bus1=HV_F0_N94.1.2.3 bus2=HV_F0_N72.1.2.3 phases=3 length=0.041939 units=km linecode=lc_2-3ph
new line.HV_F0_L129 bus1=HV_F0_N460.1.2.3 bus2=HV_F0_N455.1.2.3 phases=3 length=0.035922 units=km linecode=lc_2-3ph
new line.HV_F0_L130 bus1=HV_F0_N440.1.2.3 bus2=HV_F0_N39.1.2.3 phases=3 length=0.043867 units=km linecode=lc_2-3ph
new line.HV_F0_L131 bus1=HV_F0_N239.1.2.3 bus2=HV_F0_N57.1.2.3 phases=3 length=0.053047 units=km linecode=lc_2-3ph
new line.HV_F0_L132 bus1=HV_F0_N593.1.2.3 bus2=HV_F0_N32.1.2.3 phases=3 length=0.020941 units=km linecode=lc_2-3ph
new line.HV_F0_L133 bus1=HV_F0_N185.1.2.3 bus2=HV_F0_N107.1.2.3 phases=3 length=0.001248 units=km linecode=lc_2-3ph
new line.HV_F0_L134 bus1=HV_F0_N146.1.2.3 bus2=HV_F0_N185.1.2.3 phases=3 length=0.000999 units=km linecode=lc_2-3ph
new line.HV_F0_L135 bus1=HV_F0_N488.1.2.3 bus2=HV_F0_N117.1.2.3 phases=3 length=0.119887 units=km linecode=lc_183-3ph
new line.HV_F0_L136 bus1=HV_F0_N293.1.2.3 bus2=HV_F0_N539.1.2.3 phases=3 length=0.089277 units=km linecode=lc_2-3ph
new line.HV_F0_L137 bus1=HV_F0_N377.1.2.3 bus2=HV_F0_N146.1.2.3 phases=3 length=0.001004 units=km linecode=lc_2-3ph
new line.HV_F0_L138 bus1=HV_F0_N111.1.2.3 bus2=HV_F0_N377.1.2.3 phases=3 length=0.000723 units=km linecode=lc_2-3ph
new line.HV_F0_L139 bus1=HV_F0_N467.1.2.3 bus2=HV_F0_N473.1.2.3 phases=3 length=0.013881 units=km linecode=lc_2-3ph
new line.HV_F0_L140 bus1=HV_F0_N159.1.2.3 bus2=HV_F0_N151.1.2.3 phases=3 length=0.114319 units=km linecode=lc_2-3ph
new line.HV_F0_L141 bus1=HV_F0_N70.1.2.3 bus2=HV_F0_N159.1.2.3 phases=3 length=0.01216 units=km linecode=lc_2-3ph
new line.HV_F0_L142 bus1=HV_F0_N140.1.2.3 bus2=HV_F0_N424.1.2.3 phases=3 length=0.006148 units=km linecode=lc_2-3ph
new line.HV_F0_L143 bus1=HV_F0_N166.1.2.3 bus2=HV_F0_N149.1.2.3 phases=3 length=0.088063 units=km linecode=lc_168-3ph
new line.HV_F0_L144 bus1=HV_F0_N636.1.2.3 bus2=HV_F0_N166.1.2.3 phases=3 length=0.079538 units=km linecode=lc_168-3ph
new line.HV_F0_L145 bus1=HV_F0_N21.1.2.3 bus2=HV_F0_N615.1.2.3 phases=3 length=0.001004 units=km linecode=lc_168-3ph
new line.HV_F0_L146 bus1=HV_F0_N505.1.2.3 bus2=HV_F0_N152.1.2.3 phases=3 length=0.02332 units=km linecode=lc_2-3ph
new line.HV_F0_L147 bus1=HV_F0_N538.1.2.3 bus2=HV_F0_N529.1.2.3 phases=3 length=0.109829 units=km linecode=lc_183-3ph
new line.HV_F0_L148 bus1=HV_F0_N480.1.2.3 bus2=HV_F0_N460.1.2.3 phases=3 length=0.113819 units=km linecode=lc_2-3ph
new line.HV_F0_L149 bus1=HV_F0_N306.1.2.3 bus2=HV_F0_N392.1.2.3 phases=3 length=0.054762 units=km linecode=lc_2-3ph
new line.HV_F0_L150 bus1=HV_F0_N173.1.2.3 bus2=HV_F0_N183.1.2.3 phases=3 length=0.001046 units=km linecode=lc_2-3ph
new line.HV_F0_L151 bus1=HV_F0_N80.1.2.3 bus2=HV_F0_N186.1.2.3 phases=3 length=0.038454 units=km linecode=lc_2-3ph
new line.HV_F0_L152 bus1=HV_F0_N619.1.2.3 bus2=HV_F0_N82.1.2.3 phases=3 length=0.264842 units=km linecode=lc_2-3ph
new line.HV_F0_L153 bus1=HV_F0_N82.1.2.3 bus2=HV_F0_N68.1.2.3 phases=3 length=0.21881 units=km linecode=lc_2-3ph
new line.HV_F0_L154 bus1=HV_F0_N230.1.2.3 bus2=HV_F0_N315.1.2.3 phases=3 length=0.053649 units=km linecode=lc_2-3ph
new line.HV_F0_L155 bus1=HV_F0_N192.1.2.3 bus2=HV_F0_N633.1.2.3 phases=3 length=0.01642 units=km linecode=lc_2-3ph
new line.HV_F0_L156 bus1=HV_F0_N487.1.2.3 bus2=HV_F0_N480.1.2.3 phases=3 length=0.056347 units=km linecode=lc_2-3ph
new line.HV_F0_L157 bus1=HV_F0_N599.1.2.3 bus2=HV_F0_N220.1.2.3 phases=3 length=0.154799 units=km linecode=lc_2-3ph
new line.HV_F0_L158 bus1=HV_F0_N183.1.2.3 bus2=HV_F0_N199.1.2.3 phases=3 length=0.054377 units=km linecode=lc_2-3ph
new line.HV_F0_L159 bus1=HV_F0_N199.1.2.3 bus2=HV_F0_N192.1.2.3 phases=3 length=0.052086 units=km linecode=lc_2-3ph
new line.HV_F0_L160 bus1=HV_F0_N483.1.2.3 bus2=HV_F0_N495.1.2.3 phases=3 length=0.055893 units=km linecode=lc_2-3ph
new line.HV_F0_L161 bus1=HV_F0_N97.1.2.3 bus2=HV_F0_N581.1.2.3 phases=3 length=0.009122 units=km linecode=lc_2-3ph
new line.HV_F0_L162 bus1=HV_F0_N68.1.2.3 bus2=HV_F0_N97.1.2.3 phases=3 length=0.042527 units=km linecode=lc_2-3ph
new line.HV_F0_L163 bus1=HV_F0_N223.1.2.3 bus2=HV_F0_N604.1.2.3 phases=3 length=0.18967 units=km linecode=lc_2-3ph
new line.HV_F0_L164 bus1=HV_F0_N32.1.2.3 bus2=HV_F0_N610.1.2.3 phases=3 length=0.000379 units=km linecode=lc_2-3ph
new line.HV_F0_L165 bus1=HV_F0_N335.1.2.3 bus2=HV_F0_N635.1.2.3 phases=3 length=0.113521 units=km linecode=lc_2-3ph
new line.HV_F0_L166 bus1=HV_F0_N23.1.2.3 bus2=HV_F0_N335.1.2.3 phases=3 length=0.007966 units=km linecode=lc_2-3ph
new line.HV_F0_L167 bus1=HV_F0_N339.1.2.3 bus2=HV_F0_N528.1.2.3 phases=3 length=0.017001 units=km linecode=lc_2-3ph
new line.HV_F0_L168 bus1=HV_F0_N528.1.2.3 bus2=HV_F0_N356.1.2.3 phases=3 length=0.017001 units=km linecode=lc_2-3ph
new line.HV_F0_L169 bus1=HV_F0_N139.1.2.3 bus2=HV_F0_N352.1.2.3 phases=3 length=0.095781 units=km linecode=lc_183-3ph
new line.HV_F0_L170 bus1=HV_F0_N162.1.2.3 bus2=HV_F0_N526.1.2.3 phases=3 length=0.005674 units=km linecode=lc_2-3ph
new line.HV_F0_L171 bus1=HV_F0_N75.1.2.3 bus2=HV_F0_N81.1.2.3 phases=3 length=0.119465 units=km linecode=lc_183-3ph
new line.HV_F0_L172 bus1=HV_F0_N206.1.2.3 bus2=HV_F0_N196.1.2.3 phases=3 length=0.015454 units=km linecode=lc_2-3ph
new line.HV_F0_L173 bus1=HV_F0_N131.1.2.3 bus2=HV_F0_N130.1.2.3 phases=3 length=0.129025 units=km linecode=lc_2-3ph
new line.HV_F0_L174 bus1=HV_F0_N357.1.2.3 bus2=HV_F0_N211.1.2.3 phases=3 length=0.010053 units=km linecode=lc_2-3ph
new line.HV_F0_L175 bus1=HV_F0_N125.1.2.3 bus2=HV_F0_N131.1.2.3 phases=3 length=0.027773 units=km linecode=lc_2-3ph
new line.HV_F0_L176 bus1=HV_F0_N134.1.2.3 bus2=HV_F0_N132.1.2.3 phases=3 length=0.039189 units=km linecode=lc_46-3ph
new line.HV_F0_L177 bus1=HV_F0_N102.1.2.3 bus2=HV_F0_N138.1.2.3 phases=3 length=0.000749 units=km linecode=lc_183-3ph
new line.HV_F0_L178 bus1=HV_F0_N410.1.2.3 bus2=HV_F0_N188.1.2.3 phases=3 length=0.017159 units=km linecode=lc_2-3ph
new line.HV_F0_L179 bus1=HV_F0_N1.1.2.3 bus2=HV_F0_N427.1.2.3 phases=3 length=0.108778 units=km linecode=lc_46-3ph
new line.HV_F0_L180 bus1=HV_F0_N484.1.2.3 bus2=HV_F0_N109.1.2.3 phases=3 length=0.001005 units=km linecode=lc_183-3ph
new line.HV_F0_L181 bus1=HV_F0_N291.1.2.3 bus2=HV_F0_N376.1.2.3 phases=3 length=0.137466 units=km linecode=lc_89-3ph
new line.HV_F0_L182 bus1=HV_F0_N579.1.2.3 bus2=HV_F0_N385.1.2.3 phases=3 length=0.056611 units=km linecode=lc_183-3ph
new line.HV_F0_L183 bus1=HV_F0_N642.1.2.3 bus2=HV_F0_N629.1.2.3 phases=3 length=0.022843 units=km linecode=lc_2-3ph
new line.HV_F0_L184 bus1=HV_F0_N603.1.2.3 bus2=HV_F0_N588.1.2.3 phases=3 length=0.115985 units=km linecode=lc_183-3ph
new line.HV_F0_L185 bus1=HV_F0_N534.1.2.3 bus2=HV_F0_N544.1.2.3 phases=3 length=0.001487 units=km linecode=lc_2-3ph
new line.HV_F0_L186 bus1=HV_F0_N254.1.2.3 bus2=HV_F0_N630.1.2.3 phases=3 length=0.045362 units=km linecode=lc_2-3ph
new line.HV_F0_L187 bus1=HV_F0_N139.1.2.3 bus2=HV_F0_N123.1.2.3 phases=3 length=0.000999 units=km linecode=lc_183-3ph
new line.HV_F0_L188 bus1=HV_F0_N116.1.2.3 bus2=HV_F0_N303.1.2.3 phases=3 length=0.036434 units=km linecode=lc_2-3ph
new line.HV_F0_L189 bus1=HV_F0_N305.1.2.3 bus2=HV_F0_N568.1.2.3 phases=3 length=0.116339 units=km linecode=lc_183-3ph
new line.HV_F0_L190 bus1=HV_F0_N329.1.2.3 bus2=HV_F0_N491.1.2.3 phases=3 length=0.004063 units=km linecode=lc_2-3ph
new line.HV_F0_L191 bus1=HV_F0_N491.1.2.3 bus2=HV_F0_N339.1.2.3 phases=3 length=0.031062 units=km linecode=lc_2-3ph
new line.HV_F0_L192 bus1=HV_F0_N381.1.2.3 bus2=HV_F0_N486.1.2.3 phases=3 length=0.0997 units=km linecode=lc_2-3ph
new line.HV_F0_L193 bus1=HV_F0_N314.1.2.3 bus2=HV_F0_N305.1.2.3 phases=3 length=0.118219 units=km linecode=lc_183-3ph
new line.HV_F0_L194 bus1=HV_F0_N588.1.2.3 bus2=HV_F0_N314.1.2.3 phases=3 length=0.123584 units=km linecode=lc_183-3ph
new line.HV_F0_L195 bus1=HV_F0_N78.1.2.3 bus2=HV_F0_N201.1.2.3 phases=3 length=0.004307 units=km linecode=lc_2-3ph
new line.HV_F0_L196 bus1=HV_F0_N560.1.2.3 bus2=HV_F0_N548.1.2.3 phases=3 length=0.132423 units=km linecode=lc_183-3ph
new line.HV_F0_L197 bus1=HV_F0_N327.1.2.3 bus2=HV_F0_N509.1.2.3 phases=3 length=0.078524 units=km linecode=lc_183-3ph
new line.HV_F0_L198 bus1=HV_F0_N618.1.2.3 bus2=HV_F0_N313.1.2.3 phases=3 length=0.010528 units=km linecode=lc_2-3ph
new line.HV_F0_L199 bus1=HV_F0_N303.1.2.3 bus2=HV_F0_N135.1.2.3 phases=3 length=0.016037 units=km linecode=lc_2-3ph
new line.HV_F0_L200 bus1=HV_F0_N439.1.2.3 bus2=HV_F0_N327.1.2.3 phases=3 length=0.035949 units=km linecode=lc_183-3ph
new line.HV_F0_L201 bus1=HV_F0_N333.1.2.3 bus2=HV_F0_N614.1.2.3 phases=3 length=0.179832 units=km linecode=lc_46-3ph
new line.HV_F0_L202 bus1=HV_F0_N575.1.2.3 bus2=HV_F0_N281.1.2.3 phases=3 length=0.019632 units=km linecode=lc_2-3ph
new line.HV_F0_L203 bus1=HV_F0_N215.1.2.3 bus2=HV_F0_N225.1.2.3 phases=3 length=0.027033 units=km linecode=lc_2-3ph
new line.HV_F0_L204 bus1=HV_F0_N503.1.2.3 bus2=HV_F0_N320.1.2.3 phases=3 length=0.098656 units=km linecode=lc_183-3ph
new line.HV_F0_L205 bus1=HV_F0_N565.1.2.3 bus2=HV_F0_N572.1.2.3 phases=3 length=0.113692 units=km linecode=lc_183-3ph
new line.HV_F0_L206 bus1=HV_F0_N229.1.2.3 bus2=HV_F0_N208.1.2.3 phases=3 length=0.000996 units=km linecode=lc_183-3ph
new line.HV_F0_L207 bus1=HV_F0_N39.1.2.3 bus2=HV_F0_N42.1.2.3 phases=3 length=0.051693 units=km linecode=lc_2-3ph
new line.HV_F0_L208 bus1=HV_F0_N11.1.2.3 bus2=HV_F0_N642.1.2.3 phases=3 length=0.029151 units=km linecode=lc_2-3ph
new line.HV_F0_L209 bus1=HV_F0_N509.1.2.3 bus2=HV_F0_N503.1.2.3 phases=3 length=0.108917 units=km linecode=lc_183-3ph
new line.HV_F0_L210 bus1=HV_F0_N108.1.2.3 bus2=HV_F0_N110.1.2.3 phases=3 length=0.001409 units=km linecode=lc_2-3ph
new line.HV_F0_L211 bus1=HV_F0_N48.1.2.3 bus2=HV_F0_N108.1.2.3 phases=3 length=0.111901 units=km linecode=lc_2-3ph
new line.HV_F0_L212 bus1=HV_F0_N3.1.2.3 bus2=HV_F0_N10.1.2.3 phases=3 length=0.050161 units=km linecode=lc_2-3ph
new line.HV_F0_L213 bus1=HV_F0_N555.1.2.3 bus2=HV_F0_N430.1.2.3 phases=3 length=0.088098 units=km linecode=lc_183-3ph
new line.HV_F0_L214 bus1=HV_F0_N307.1.2.3 bus2=HV_F0_N175.1.2.3 phases=3 length=0.005374 units=km linecode=lc_2-3ph
new line.HV_F0_L215 bus1=HV_F0_N572.1.2.3 bus2=HV_F0_N590.1.2.3 phases=3 length=0.114317 units=km linecode=lc_183-3ph
new line.HV_F0_L216 bus1=HV_F0_N273.1.2.3 bus2=HV_F0_N477.1.2.3 phases=3 length=0.035664 units=km linecode=lc_2-3ph
new line.HV_F0_L217 bus1=HV_F0_N472.1.2.3 bus2=HV_F0_N605.1.2.3 phases=3 length=0.031899 units=km linecode=lc_183-3ph
new line.HV_F0_L218 bus1=HV_F0_N545.1.2.3 bus2=HV_F0_N162.1.2.3 phases=3 length=0.022052 units=km linecode=lc_2-3ph
new line.HV_F0_L219 bus1=HV_F0_N275.1.2.3 bus2=HV_F0_N365.1.2.3 phases=3 length=0.224149 units=km linecode=lc_26-3ph
new line.HV_F0_L220 bus1=HV_F0_N262.1.2.3 bus2=HV_F0_N279.1.2.3 phases=3 length=0.036439 units=km linecode=lc_2-3ph
new line.HV_F0_L221 bus1=HV_F0_N316.1.2.3 bus2=HV_F0_N288.1.2.3 phases=3 length=0.078308 units=km linecode=lc_2-3ph
new line.HV_F0_L222 bus1=HV_F0_N524.1.2.3 bus2=HV_F0_N516.1.2.3 phases=3 length=0.02904 units=km linecode=lc_2-3ph
new line.HV_F0_L223 bus1=HV_F0_N178.1.2.3 bus2=HV_F0_N312.1.2.3 phases=3 length=0.014032 units=km linecode=lc_2-3ph
new line.HV_F0_L224 bus1=HV_F0_N28.1.2.3 bus2=HV_F0_N323.1.2.3 phases=3 length=0.131998 units=km linecode=lc_183-3ph
new line.HV_F0_L225 bus1=HV_F0_N639.1.2.3 bus2=HV_F0_N28.1.2.3 phases=3 length=0.000502 units=km linecode=lc_183-3ph
new line.HV_F0_L226 bus1=HV_F0_N631.1.2.3 bus2=HV_F0_N391.1.2.3 phases=3 length=0.059751 units=km linecode=lc_89-3ph
new line.HV_F0_L227 bus1=HV_F0_N608.1.2.3 bus2=HV_F0_N321.1.2.3 phases=3 length=0.003361 units=km linecode=lc_2-3ph
new line.HV_F0_L228 bus1=HV_F0_N225.1.2.3 bus2=HV_F0_N232.1.2.3 phases=3 length=0.05656 units=km linecode=lc_2-3ph
new line.HV_F0_L229 bus1=HV_F0_N404.1.2.3 bus2=HV_F0_N181.1.2.3 phases=3 length=0.006011 units=km linecode=lc_2-3ph
new line.HV_F0_L230 bus1=HV_F0_N590.1.2.3 bus2=HV_F0_N598.1.2.3 phases=3 length=0.140619 units=km linecode=lc_183-3ph
new line.HV_F0_L231 bus1=HV_F0_N332.1.2.3 bus2=HV_F0_N316.1.2.3 phases=3 length=0.04266 units=km linecode=lc_2-3ph
new line.HV_F0_L232 bus1=HV_F0_N527.1.2.3 bus2=HV_F0_N524.1.2.3 phases=3 length=0.045685 units=km linecode=lc_2-3ph
new line.HV_F0_L233 bus1=HV_F0_N393.1.2.3 bus2=HV_F0_N587.1.2.3 phases=3 length=0.050847 units=km linecode=lc_183-3ph
new line.HV_F0_L234 bus1=HV_F0_N18.1.2.3 bus2=HV_F0_N471.1.2.3 phases=3 length=0.045503 units=km linecode=lc_183-3ph
new line.HV_F0_L235 bus1=HV_F0_N342.1.2.3 bus2=HV_F0_N332.1.2.3 phases=3 length=0.051282 units=km linecode=lc_2-3ph
new line.HV_F0_L236 bus1=HV_F0_N328.1.2.3 bus2=HV_F0_N342.1.2.3 phases=3 length=0.037579 units=km linecode=lc_2-3ph
new line.HV_F0_L237 bus1=HV_F0_N334.1.2.3 bus2=HV_F0_N319.1.2.3 phases=3 length=0.031002 units=km linecode=lc_183-3ph
new line.HV_F0_L238 bus1=HV_F0_N574.1.2.3 bus2=HV_F0_N282.1.2.3 phases=3 length=0.064764 units=km linecode=lc_183-3ph
new line.HV_F0_L239 bus1=HV_F0_N282.1.2.3 bus2=HV_F0_N363.1.2.3 phases=3 length=0.067747 units=km linecode=lc_183-3ph
new line.HV_F0_L240 bus1=HV_F0_N45.1.2.3 bus2=HV_F0_N384.1.2.3 phases=3 length=0.138264 units=km linecode=lc_44-3ph
new line.HV_F0_L241 bus1=HV_F0_N384.1.2.3 bus2=HV_F0_N14.1.2.3 phases=3 length=0.119122 units=km linecode=lc_44-3ph
new line.HV_F0_L242 bus1=HV_F0_N105.1.2.3 bus2=HV_F0_N558.1.2.3 phases=3 length=0.082359 units=km linecode=lc_2-3ph
new line.HV_F0_L243 bus1=HV_F0_N220.1.2.3 bus2=HV_F0_N324.1.2.3 phases=3 length=0.039279 units=km linecode=lc_2-3ph
new line.HV_F0_L244 bus1=HV_F0_N324.1.2.3 bus2=HV_F0_N498.1.2.3 phases=3 length=0.004387 units=km linecode=lc_2-3ph
new line.HV_F0_L245 bus1=HV_F0_N224.1.2.3 bus2=HV_F0_N298.1.2.3 phases=3 length=0.014031 units=km linecode=lc_2-3ph
new line.HV_F0_L246 bus1=HV_F0_N612.1.2.3 bus2=HV_F0_N597.1.2.3 phases=3 length=0.04358 units=km linecode=lc_2-3ph
new line.HV_F0_L247 bus1=HV_F0_N144.1.2.3 bus2=HV_F0_N63.1.2.3 phases=3 length=0.003404 units=km linecode=lc_2-3ph
new line.HV_F0_L248 bus1=HV_F0_N176.1.2.3 bus2=HV_F0_N174.1.2.3 phases=3 length=0.006679 units=km linecode=lc_2-3ph
new line.HV_F0_L249 bus1=HV_F0_N327.1.2.3 bus2=HV_F0_N119.1.2.3 phases=3 length=0.140809 units=km linecode=lc_2-3ph
new line.HV_F0_L250 bus1=HV_F0_N461.1.2.3 bus2=HV_F0_N468.1.2.3 phases=3 length=0.043999 units=km linecode=lc_2-3ph
new line.HV_F0_L251 bus1=HV_F0_N637.1.2.3 bus2=HV_F0_N212.1.2.3 phases=3 length=0.091762 units=km linecode=lc_46-3ph
new line.HV_F0_L252 bus1=HV_F0_N100.1.2.3 bus2=HV_F0_N99.1.2.3 phases=3 length=0.083783 units=km linecode=lc_183-3ph
new line.HV_F0_L253 bus1=HV_F0_N6.1.2.3 bus2=HV_F0_N264.1.2.3 phases=3 length=0.027975 units=km linecode=lc_89-3ph
new line.HV_F0_L254 bus1=HV_F0_N119.1.2.3 bus2=HV_F0_N124.1.2.3 phases=3 length=0.052276 units=km linecode=lc_2-3ph
new line.HV_F0_L255 bus1=HV_F0_N7.1.2.3 bus2=HV_F0_N621.1.2.3 phases=3 length=0.039251 units=km linecode=lc_2-3ph
new line.HV_F0_L256 bus1=HV_F0_N375.1.2.3 bus2=HV_F0_N370.1.2.3 phases=3 length=0.129972 units=km linecode=lc_44-3ph
new line.HV_F0_L257 bus1=HV_F0_N19.1.2.3 bus2=HV_F0_N148.1.2.3 phases=3 length=0.063577 units=km linecode=lc_2-3ph