new linecode.lc_0-3ph nphases=3 r1=0.001 x1=0.001 b1=0.001 r0=0.001 x0=0.001 b0=0.001 units=km normamp=1000.0
new linecode.lc_1-3ph nphases=3 r1=2.243 x1=0.422 b1=3.7 r0=1.755 x0=2.393 b0=3.7 units=km normamp=103.0
new linecode.lc_2-3ph nphases=3 r1=0.211 x1=0.106 b1=70.086 r0=0.257 x0=0.801 b0=70.086 units=km normamp=315.0
new linecode.lc_3-3ph nphases=3 r1=0.348 x1=0.081 b1=130.0 r0=0.759 x0=1.257 b0=130.0 units=km normamp=210.0
new linecode.lc_4-3ph nphases=3 r1=0.233 x1=0.078 b1=150.8 r0=0.666 x0=1.122 b0=150.8 units=km normamp=260.0
new linecode.lc_5-3ph nphases=3 r1=0.168 x1=0.076 b1=170.0 r0=0.66 x0=1.032 b0=170.0 units=km normamp=330.0
new linecode.lc_6-3ph nphases=3 r1=0.133 x1=0.074 b1=185.35 r0=0.541 x0=0.95 b0=185.35 units=km normamp=345.0
new linecode.lc_7-3ph nphases=3 r1=0.084 x1=0.07 b1=230.0 r0=0.38 x0=0.757 b0=230.0 units=km normamp=445.0
new linecode.lc_8-3ph nphases=3 r1=0.065 x1=0.069 b1=251.33 r0=0.301 x0=0.659 b0=251.33 units=km normamp=485.0
new linecode.lc_9-3ph nphases=3 r1=0.14 x1=0.076 b1=249.76 r0=0.527 x0=0.974 b0=249.76 units=km normamp=370.0
new linecode.lc_10-3ph nphases=3 r1=0.147 x1=0.11 b1=144.5 r0=0.249 x0=0.776 b0=144.5 units=km normamp=330.0
new linecode.lc_11-3ph nphases=3 r1=0.12 x1=0.075 b1=267.0 r0=0.468 x0=0.883 b0=267.0 units=km normamp=390.0
new linecode.lc_12-3ph nphases=3 r1=0.118 x1=0.106 b1=157.0 r0=0.201 x0=0.65 b0=157.0 units=km normamp=365.0
new linecode.lc_13-3ph nphases=3 r1=0.074 x1=0.071 b1=329.9 r0=0.289 x0=0.664 b0=329.9 units=km normamp=500.0
new linecode.lc_14-3ph nphases=3 r1=0.078 x1=0.099 b1=194.8 r0=0.148 x0=0.53 b0=194.8 units=km normamp=465.0
new linecode.lc_15-3ph nphases=3 r1=0.055 x1=0.092 b1=238.76 r0=0.45 x0=0.84 b0=238.76 units=km normamp=565.0
new linecode.lc_16-3ph nphases=3 r1=0.038 x1=0.089 b1=263.89 r0=0.347 x0=0.741 b0=263.89 units=km normamp=645.0
new linecode.lc_17-3ph nphases=3 r1=0.316 x1=0.124 b1=106.8 r0=0.392 x0=1.091 b0=106.8 units=km normamp=215.0
new linecode.lc_18-3ph nphases=3 r1=0.35 x1=0.126 b1=102.1 r0=0.401 x0=1.115 b0=102.1 units=km normamp=215.0
new linecode.lc_19-3ph nphases=3 r1=0.17 x1=0.112 b1=136.7 r0=0.287 x0=0.857 b0=136.7 units=km normamp=300.0
new linecode.lc_20-3ph nphases=3 r1=0.098 x1=0.099 b1=157.08 r0=0.153 x0=0.436 b0=157.08 units=km normamp=420.0
new linecode.lc_21-3ph nphases=3 r1=0.47 x1=0.084 b1=0.0001 r0=0.865 x0=1.413 b0=0.0001 units=km normamp=128.0
new linecode.lc_22-3ph nphases=3 r1=0.11 x1=0.072 b1=202.63 r0=0.487 x0=0.871 b0=202.63 units=km normamp=430.0
new linecode.lc_23-3ph nphases=3 r1=0.04 x1=0.066 b1=281.17 r0=0.228 x0=0.564 b0=281.17 units=km normamp=625.0
new linecode.lc_24-3ph nphases=3 r1=0.113 x1=0.071 b1=188.5 r0=0.313 x0=0.736 b0=188.5 units=km normamp=400.0
new linecode.lc_25-3ph nphases=3 r1=1.113 x1=0.14 b1=40.85 r0=0.453 x0=1.889 b0=40.85 units=km normamp=125.0
new linecode.lc_26-3ph nphases=3 r1=0.161 x1=0.101 b1=77.6 r0=0.189 x0=0.654 b0=77.6 units=km normamp=365.0
new linecode.lc_27-3ph nphases=3 r1=0.218 x1=0.118 b1=122.52 r0=0.346 x0=0.982 b0=122.52 units=km normamp=260.0
new linecode.lc_28-3ph nphases=3 r1=0.138 x1=0.108 b1=149.2 r0=0.231 x0=0.718 b0=149.2 units=km normamp=345.0
new linecode.lc_29-3ph nphases=3 r1=1.116 x1=0.149 b1=40.85 r0=0.453 x0=1.889 b0=40.85 units=km normamp=125.0
new linecode.lc_30-3ph nphases=3 r1=0.076 x1=0.096 b1=104.32 r0=0.063 x0=0.239 b0=104.32 units=km normamp=625.0
new linecode.lc_31-3ph nphases=3 r1=0.233 x1=0.078 b1=94.52 r0=0.666 x0=1.122 b0=94.52 units=km normamp=255.0
new linecode.lc_32-3ph nphases=3 r1=0.233 x1=0.078 b1=94.52 r0=0.666 x0=1.122 b0=94.52 units=km normamp=255.0
new linecode.lc_33-3ph nphases=3 r1=0.233 x1=0.078 b1=94.52 r0=0.666 x0=1.122 b0=94.52 units=km normamp=255.0
new linecode.lc_34-3ph nphases=3 r1=0.133 x1=0.0737 b1=116.19 r0=0.541 x0=0.95 b0=116.19 units=km normamp=345.0
new linecode.lc_35-3ph nphases=3 r1=0.133 x1=0.0737 b1=116.19 r0=0.541 x0=0.95 b0=116.19 units=km normamp=345.0
new linecode.lc_36-3ph nphases=3 r1=0.133 x1=0.0737 b1=116.19 r0=0.541 x0=0.95 b0=116.19 units=km normamp=345.0
new linecode.lc_37-3ph nphases=3 r1=0.133 x1=0.0737 b1=116.19 r0=0.541 x0=0.95 b0=116.19 units=km normamp=345.0
new linecode.lc_38-3ph nphases=3 r1=0.149 x1=0.0708 b1=150.26 r0=0.372 x0=0.826 b0=150.26 units=km normamp=345.0
new linecode.lc_39-3ph nphases=3 r1=0.149 x1=0.0708 b1=150.26 r0=0.372 x0=0.826 b0=150.26 units=km normamp=345.0
new linecode.lc_40-3ph nphases=3 r1=0.068 x1=0.0908 b1=196.93 r0=0.746 x0=1.018 b0=196.93 units=km normamp=330.0
new linecode.lc_41-3ph nphases=3 r1=0.12 x1=0.0747 b1=361.29 r0=0.468 x0=0.883 b0=361.29 units=km normamp=390.0
new linecode.lc_42-3ph nphases=3 r1=0.12 x1=0.0747 b1=361.29 r0=0.468 x0=0.883 b0=361.29 units=km normamp=390.0
new linecode.lc_43-3ph nphases=3 r1=0.074 x1=0.0711 b1=329.8 r0=0.289 x0=0.664 b0=329.8 units=km normamp=500.0
new linecode.lc_44-3ph nphases=3 r1=10.824 x1=2.243000031 b1=0.0001 r0=3.51699996 x0=10.97299957 b0=0.0001 units=km normamp=25.0
new linecode.lc_45-3ph nphases=3 r1=10.824 x1=0.6649 b1=0.0001 r0=0.6649 x0=10.824 b0=0.0001 units=km normamp=28.0
new linecode.lc_46-3ph nphases=3 r1=10.824 x1=2.243000031 b1=0.0001 r0=3.51699996 x0=10.97299957 b0=0.0001 units=km normamp=28.0
new linecode.lc_47-3ph nphases=3 r1=6.015 x1=0.745999992 b1=0.0001 r0=1.901000023 x0=6.164000034 b0=0.0001 units=km normamp=33.0
new linecode.lc_48-3ph nphases=3 r1=4.6 x1=1.2 b1=3.08 r0=1.2 x0=4.6 b0=3.08 units=km normamp=44.0
new linecode.lc_49-3ph nphases=3 r1=0.794 x1=0.395000011 b1=3.7 r0=1.646000028 x0=0.941999972 b0=3.7 units=km normamp=200.0
new linecode.lc_50-3ph nphases=3 r1=0.794 x1=0.395000011 b1=3.7 r0=1.646000028 x0=0.941999972 b0=3.7 units=km normamp=98.0
new linecode.lc_51-3ph nphases=3 r1=0.794 x1=0.395000011 b1=3.7 r0=1.646000028 x0=0.941999972 b0=3.7 units=km normamp=133.0
new linecode.lc_52-3ph nphases=3 r1=0.794 x1=0.395000011 b1=3.7 r0=1.646000028 x0=0.941999972 b0=3.7 units=km normamp=147.0
new linecode.lc_53-3ph nphases=3 r1=0.794 x1=0.395000011 b1=3.7 r0=1.646000028 x0=0.941999972 b0=3.7 units=km normamp=180.0
new linecode.lc_54-3ph nphases=3 r1=0.499 x1=0.377999991 b1=3.058 r0=1.633000016 x0=0.646000028 b0=3.058 units=km normamp=132.0
new linecode.lc_55-3ph nphases=3 r1=0.499 x1=0.377999991 b1=3.058 r0=1.633000016 x0=0.646000028 b0=3.058 units=km normamp=185.0
new linecode.lc_56-3ph nphases=3 r1=0.499 x1=0.377999991 b1=3.058 r0=1.633000016 x0=0.646000028 b0=3.058 units=km normamp=205.0
new linecode.lc_57-3ph nphases=3 r1=0.499 x1=0.377999991 b1=3.058 r0=1.633000016 x0=0.646000028 b0=3.058 units=km normamp=250.0
new linecode.lc_58-3ph nphases=3 r1=0.291 x1=0.338 b1=3.22 r0=1.611999989 x0=0.439000011 b0=3.22 units=km normamp=180.0
new linecode.lc_59-3ph nphases=3 r1=0.197 x1=0.344999999 b1=3.34 r0=1.600000024 x0=0.344999999 b0=3.34 units=km normamp=225.0
new linecode.lc_60-3ph nphases=3 r1=0.197 x1=0.344999999 b1=3.34 r0=1.600000024 x0=0.344999999 b0=3.34 units=km normamp=320.0
new linecode.lc_61-3ph nphases=3 r1=0.197 x1=0.344999999 b1=3.34 r0=1.600000024 x0=0.344999999 b0=3.34 units=km normamp=355.0
new linecode.lc_62-3ph nphases=3 r1=0.197 x1=0.344999999 b1=3.34 r0=1.600000024 x0=0.344999999 b0=3.34 units=km normamp=445.0
new linecode.lc_63-3ph nphases=3 r1=0.149 x1=0.337000012 b1=3.43 r0=1.590999961 x0=0.296999991 b0=3.43 units=km normamp=260.0
new linecode.lc_64-3ph nphases=3 r1=0.149 x1=0.337000012 b1=3.43 r0=1.590999961 x0=0.296999991 b0=3.43 units=km normamp=375.0
new linecode.lc_65-3ph nphases=3 r1=0.149 x1=0.337000012 b1=3.43 r0=1.590999961 x0=0.296999991 b0=3.43 units=km normamp=420.0
new linecode.lc_66-3ph nphases=3 r1=0.149 x1=0.337000012 b1=3.43 r0=1.590999961 x0=0.296999991 b0=3.43 units=km normamp=555.0
new linecode.lc_67-3ph nphases=3 r1=0.15 x1=0.335999996 b1=3.432 r0=1.590000033 x0=0.298000008 b0=3.432 units=km normamp=210.0
new linecode.lc_68-3ph nphases=3 r1=0.098 x1=0.321999997 b1=3.584 r0=1.577000022 x0=0.246000007 b0=3.584 units=km normamp=245.0
new linecode.lc_69-3ph nphases=3 r1=0.075 x1=0.314000011 b1=3.688 r0=1.567999959 x0=0.223000005 b0=3.688 units=km normamp=300.0
new linecode.lc_70-3ph nphases=3 r1=1.444 x1=0.409000009 b1=3.7 r0=1.664000034 x0=1.593000054 b0=3.7 units=km normamp=75.0
new linecode.lc_71-3ph nphases=3 r1=1.444 x1=0.409000009 b1=3.7 r0=1.664000034 x0=1.593000054 b0=3.7 units=km normamp=75.0
new linecode.lc_72-3ph nphases=3 r1=1.444 x1=0.409000009 b1=3.7 r0=1.664000034 x0=1.593000054 b0=3.7 units=km normamp=102.0
new linecode.lc_73-3ph nphases=3 r1=1.444 x1=0.409000009 b1=3.7 r0=1.664000034 x0=1.593000054 b0=3.7 units=km normamp=112.0
new linecode.lc_74-3ph nphases=3 r1=1.444 x1=0.409000009 b1=3.7 r0=1.664000034 x0=1.593000054 b0=3.7 units=km normamp=145.0
new linecode.lc_75-3ph nphases=3 r1=1.064 x1=0.400000006 b1=3.737 r0=1.65199995 x0=1.213000059 b0=3.737 units=km normamp=75.0
new linecode.lc_76-3ph nphases=3 r1=1.064 x1=0.400000006 b1=3.737 r0=1.65199995 x0=1.213000059 b0=3.737 units=km normamp=75.0
new linecode.lc_77-3ph nphases=3 r1=0.732 x1=0.386000007 b1=2.994 r0=1.641000032 x0=0.879999995 b0=2.994 units=km normamp=107.0
new linecode.lc_78-3ph nphases=3 r1=0.485 x1=0.372999996 b1=3.104 r0=1.628000021 x0=0.633000016 b0=3.104 units=km normamp=136.0
new linecode.lc_79-3ph nphases=3 r1=0.29 x1=0.352999985 b1=3.262 r0=1.60800004 x0=0.437000006 b0=3.262 units=km normamp=180.0
new linecode.lc_80-3ph nphases=3 r1=0.29 x1=0.352999985 b1=3.262 r0=1.60800004 x0=0.437000006 b0=3.262 units=km normamp=255.0
new linecode.lc_81-3ph nphases=3 r1=0.29 x1=0.352999985 b1=3.262 r0=1.60800004 x0=0.437000006 b0=3.262 units=km normamp=280.0
new linecode.lc_82-3ph nphases=3 r1=0.29 x1=0.352999985 b1=3.262 r0=1.60800004 x0=0.437000006 b0=3.262 units=km normamp=305.0
new linecode.lc_83-3ph nphases=3 r1=0.29 x1=0.352999985 b1=3.262 r0=1.60800004 x0=0.437000006 b0=3.262 units=km normamp=350.0
new linecode.lc_84-3ph nphases=3 r1=2.187 x1=0.428000003 b1=3.04 r0=1.657999992 x0=2.335999966 b0=3.04 units=km normamp=66.0
new linecode.lc_85-3ph nphases=3 r1=2.187 x1=0.428000003 b1=3.04 r0=1.657999992 x0=2.335999966 b0=3.04 units=km normamp=90.0
new linecode.lc_86-3ph nphases=3 r1=2.187 x1=0.428000003 b1=3.04 r0=1.657999992 x0=2.335999966 b0=3.04 units=km normamp=99.0
new linecode.lc_87-3ph nphases=3 r1=2.187 x1=0.428000003 b1=3.04 r0=1.657999992 x0=2.335999966 b0=3.04 units=km normamp=122.0
new linecode.lc_88-3ph nphases=3 r1=2.24 x1=0.819999993 b1=0.0 r0=0.819999993 x0=2.24000001 b0=0.0 units=km normamp=66.0
new linecode.lc_89-3ph nphases=3 r1=1.117 x1=0.400999993 b1=3.04 r0=1.657999992 x0=1.225999951 b0=3.04 units=km normamp=84.0
new linecode.lc_90-3ph nphases=3 r1=1.117 x1=0.400999993 b1=3.04 r0=1.657999992 x0=1.225999951 b0=3.04 units=km normamp=114.0
new linecode.lc_91-3ph nphases=3 r1=1.117 x1=0.400999993 b1=3.04 r0=1.657999992 x0=1.225999951 b0=3.04 units=km normamp=126.0
new linecode.lc_92-3ph nphases=3 r1=1.117 x1=0.400999993 b1=3.04 r0=1.657999992 x0=1.225999951 b0=3.04 units=km normamp=155.0
new linecode.lc_93-3ph nphases=3 r1=0.694 x1=0.386000007 b1=3.26 r0=1.639000058 x0=0.842999995 b0=3.26 units=km normamp=109.0
new linecode.lc_94-3ph nphases=3 r1=0.694 x1=0.386000007 b1=3.26 r0=1.639000058 x0=0.842999995 b0=3.26 units=km normamp=150.0
new linecode.lc_95-3ph nphases=3 r1=0.694 x1=0.386000007 b1=3.26 r0=1.639000058 x0=0.842999995 b0=3.26 units=km normamp=165.0
new linecode.lc_96-3ph nphases=3 r1=0.694 x1=0.386000007 b1=3.26 r0=1.639000058 x0=0.842999995 b0=3.26 units=km normamp=205.0
new linecode.lc_97-3ph nphases=3 r1=0.44 x1=0.381000012 b1=3.26 r0=1.626999974 x0=0.588 b0=3.26 units=km normamp=135.0
new linecode.lc_98-3ph nphases=3 r1=0.44 x1=0.381000012 b1=3.26 r0=1.626999974 x0=0.588 b0=3.26 units=km normamp=190.0
new linecode.lc_99-3ph nphases=3 r1=0.44 x1=0.381000012 b1=3.26 r0=1.626999974 x0=0.588 b0=3.26 units=km normamp=210.0
new linecode.lc_100-3ph nphases=3 r1=0.44 x1=0.381000012 b1=3.26 r0=1.626999974 x0=0.588 b0=3.26 units=km normamp=230.0
new linecode.lc_101-3ph nphases=3 r1=0.44 x1=0.381000012 b1=3.26 r0=1.626999974 x0=0.588 b0=3.26 units=km normamp=260.0
new linecode.lc_102-3ph nphases=3 r1=0.232 x1=0.374000013 b1=3.412 r0=1.631999969 x0=0.467000008 b0=3.412 units=km normamp=420.0
new linecode.lc_103-3ph nphases=3 r1=0.232 x1=0.374000013 b1=3.412 r0=1.631999969 x0=0.467000008 b0=3.412 units=km normamp=180.0
new linecode.lc_104-3ph nphases=3 r1=0.232 x1=0.374000013 b1=3.412 r0=1.631999969 x0=0.467000008 b0=3.412 units=km normamp=220.0
new linecode.lc_105-3ph nphases=3 r1=0.232 x1=0.374000013 b1=3.412 r0=1.631999969 x0=0.467000008 b0=3.412 units=km normamp=250.0
new linecode.lc_106-3ph nphases=3 r1=0.232 x1=0.374000013 b1=3.412 r0=1.631999969 x0=0.467000008 b0=3.412 units=km normamp=285.0
new linecode.lc_107-3ph nphases=3 r1=0.232 x1=0.374000013 b1=3.412 r0=1.631999969 x0=0.467000008 b0=3.412 units=km normamp=310.0
new linecode.lc_108-3ph nphases=3 r1=0.232 x1=0.374000013 b1=3.412 r0=1.631999969 x0=0.467000008 b0=3.412 units=km normamp=335.0
new linecode.lc_109-3ph nphases=3 r1=0.232 x1=0.374000013 b1=3.412 r0=1.631999969 x0=0.467000008 b0=3.412 units=km normamp=360.0
new linecode.lc_110-3ph nphases=3 r1=0.232 x1=0.374000013 b1=3.412 r0=1.631999969 x0=0.467000008 b0=3.412 units=km normamp=400.0
new linecode.lc_111-3ph nphases=3 r1=0.173 x1=0.316000015 b1=3.604 r0=1.57099998 x0=0.319999993 b0=3.604 units=km normamp=250.0
new linecode.lc_112-3ph nphases=3 r1=0.173 x1=0.316000015 b1=3.604 r0=1.57099998 x0=0.319999993 b0=3.604 units=km normamp=360.0
new linecode.lc_113-3ph nphases=3 r1=0.173 x1=0.316000015 b1=3.604 r0=1.57099998 x0=0.319999993 b0=3.604 units=km normamp=405.0
new linecode.lc_114-3ph nphases=3 r1=0.173 x1=0.316000015 b1=3.604 r0=1.57099998 x0=0.319999993 b0=3.604 units=km normamp=510.0
new linecode.lc_115-3ph nphases=3 r1=0.14 x1=0.308999986 b1=3.688 r0=1.56400001 x0=0.287999988 b0=3.688 units=km normamp=360.0
new linecode.lc_116-3ph nphases=3 r1=0.14 x1=0.308999986 b1=3.688 r0=1.56400001 x0=0.287999988 b0=3.688 units=km normamp=560.0
new linecode.lc_117-3ph nphases=3 r1=0.14 x1=0.308999986 b1=3.688 r0=1.56400001 x0=0.287999988 b0=3.688 units=km normamp=630.0
new linecode.lc_118-3ph nphases=3 r1=0.14 x1=0.308999986 b1=3.688 r0=1.56400001 x0=0.287999988 b0=3.688 units=km normamp=800.0
new linecode.lc_119-3ph nphases=3 r1=1.7 x1=0.419999987 b1=3.04 r0=1.677000046 x0=1.850000024 b0=3.04 units=km normamp=70.0
new linecode.lc_120-3ph nphases=3 r1=1.7 x1=0.419999987 b1=3.04 r0=1.677000046 x0=1.850000024 b0=3.04 units=km normamp=85.0
new linecode.lc_121-3ph nphases=3 r1=1.7 x1=0.419999987 b1=3.04 r0=1.677000046 x0=1.850000024 b0=3.04 units=km normamp=96.0
new linecode.lc_122-3ph nphases=3 r1=1.7 x1=0.419999987 b1=3.04 r0=1.677000046 x0=1.850000024 b0=3.04 units=km normamp=106.0
new linecode.lc_123-3ph nphases=3 r1=1.7 x1=0.419999987 b1=3.04 r0=1.677000046 x0=1.850000024 b0=3.04 units=km normamp=115.0
new linecode.lc_124-3ph nphases=3 r1=1.7 x1=0.419999987 b1=3.04 r0=1.677000046 x0=1.850000024 b0=3.04 units=km normamp=123.0
new linecode.lc_125-3ph nphases=3 r1=1.7 x1=0.419999987 b1=3.04 r0=1.677000046 x0=1.850000024 b0=3.04 units=km normamp=130.0
new linecode.lc_126-3ph nphases=3 r1=1.064 x1=0.439999998 b1=3.04 r0=1.700000048 x0=1.25 b0=3.04 units=km normamp=89.0
new linecode.lc_127-3ph nphases=3 r1=1.064 x1=0.439999998 b1=3.04 r0=1.700000048 x0=1.25 b0=3.04 units=km normamp=121.0
new linecode.lc_128-3ph nphases=3 r1=1.064 x1=0.439999998 b1=3.04 r0=1.700000048 x0=1.25 b0=3.04 units=km normamp=135.0
new linecode.lc_129-3ph nphases=3 r1=1.064 x1=0.439999998 b1=3.04 r0=1.700000048 x0=1.25 b0=3.04 units=km normamp=165.0
new linecode.lc_130-3ph nphases=3 r1=0.78 x1=0.419999987 b1=3.26 r0=1.679999948 x0=0.930000007 b0=3.26 units=km normamp=109.0
new linecode.lc_131-3ph nphases=3 r1=0.78 x1=0.419999987 b1=3.26 r0=1.679999948 x0=0.930000007 b0=3.26 units=km normamp=131.0
new linecode.lc_132-3ph nphases=3 r1=0.78 x1=0.419999987 b1=3.26 r0=1.679999948 x0=0.930000007 b0=3.26 units=km normamp=150.0
new linecode.lc_133-3ph nphases=3 r1=0.78 x1=0.419999987 b1=3.26 r0=1.679999948 x0=0.930000007 b0=3.26 units=km normamp=165.0
new linecode.lc_134-3ph nphases=3 r1=0.78 x1=0.419999987 b1=3.26 r0=1.679999948 x0=0.930000007 b0=3.26 units=km normamp=180.0
new linecode.lc_135-3ph nphases=3 r1=0.78 x1=0.419999987 b1=3.26 r0=1.679999948 x0=0.930000007 b0=3.26 units=km normamp=195.0
new linecode.lc_136-3ph nphases=3 r1=0.78 x1=0.419999987 b1=3.26 r0=1.679999948 x0=0.930000007 b0=3.26 units=km normamp=205.0
new linecode.lc_137-3ph nphases=3 r1=0.51 x1=0.379999995 b1=3.26 r0=1.631000042 x0=0.660000026 b0=3.26 units=km normamp=138.0
new linecode.lc_138-3ph nphases=3 r1=0.51 x1=0.379999995 b1=3.26 r0=1.631000042 x0=0.660000026 b0=3.26 units=km normamp=195.0
new linecode.lc_139-3ph nphases=3 r1=0.51 x1=0.379999995 b1=3.26 r0=1.631000042 x0=0.660000026 b0=3.26 units=km normamp=215.0
new linecode.lc_140-3ph nphases=3 r1=0.51 x1=0.379999995 b1=3.26 r0=1.631000042 x0=0.660000026 b0=3.26 units=km normamp=270.0
new linecode.lc_141-3ph nphases=3 r1=0.32 x1=0.379999995 b1=3.42 r0=1.629999995 x0=0.469999999 b0=3.42 units=km normamp=180.0
new linecode.lc_142-3ph nphases=3 r1=0.32 x1=0.379999995 b1=3.42 r0=1.629999995 x0=0.469999999 b0=3.42 units=km normamp=255.0
new linecode.lc_143-3ph nphases=3 r1=0.32 x1=0.379999995 b1=3.42 r0=1.629999995 x0=0.469999999 b0=3.42 units=km normamp=285.0
new linecode.lc_144-3ph nphases=3 r1=0.32 x1=0.379999995 b1=3.42 r0=1.629999995 x0=0.469999999 b0=3.42 units=km normamp=310.0
new linecode.lc_145-3ph nphases=3 r1=0.32 x1=0.379999995 b1=3.42 r0=1.629999995 x0=0.469999999 b0=3.42 units=km normamp=355.0
new linecode.lc_146-3ph nphases=3 r1=0.32 x1=0.379999995 b1=3.42 r0=1.629999995 x0=0.469999999 b0=3.42 units=km normamp=360.0
new linecode.lc_147-3ph nphases=3 r1=0.194 x1=0.330000013 b1=3.498 r0=1.585000038 x0=0.342000008 b0=3.498 units=km normamp=230.0
new linecode.lc_148-3ph nphases=3 r1=0.194 x1=0.330000013 b1=3.498 r0=1.585000038 x0=0.342000008 b0=3.498 units=km normamp=335.0
new linecode.lc_149-3ph nphases=3 r1=0.194 x1=0.330000013 b1=3.498 r0=1.585000038 x0=0.342000008 b0=3.498 units=km normamp=375.0
new linecode.lc_150-3ph nphases=3 r1=0.194 x1=0.330000013 b1=3.498 r0=1.585000038 x0=0.342000008 b0=3.498 units=km normamp=475.0
new linecode.lc_151-3ph nphases=3 r1=0.143 x1=0.32100001 b1=3.61 r0=1.572999954 x0=0.291000009 b0=3.61 units=km normamp=270.0
new linecode.lc_152-3ph nphases=3 r1=0.143 x1=0.32100001 b1=3.61 r0=1.572999954 x0=0.291000009 b0=3.61 units=km normamp=400.0
new linecode.lc_153-3ph nphases=3 r1=0.143 x1=0.32100001 b1=3.61 r0=1.572999954 x0=0.291000009 b0=3.61 units=km normamp=450.0
new linecode.lc_154-3ph nphases=3 r1=0.143 x1=0.32100001 b1=3.61 r0=1.572999954 x0=0.291000009 b0=3.61 units=km normamp=570.0
new linecode.lc_155-3ph nphases=3 r1=0.116 x1=0.314000011 b1=3.688 r0=1.569000006 x0=0.263999999 b0=3.688 units=km normamp=305.0
new linecode.lc_156-3ph nphases=3 r1=0.116 x1=0.314000011 b1=3.688 r0=1.569000006 x0=0.263999999 b0=3.688 units=km normamp=455.0
new linecode.lc_157-3ph nphases=3 r1=0.116 x1=0.314000011 b1=3.688 r0=1.569000006 x0=0.263999999 b0=3.688 units=km normamp=515.0
new linecode.lc_158-3ph nphases=3 r1=0.116 x1=0.314000011 b1=3.688 r0=1.569000006 x0=0.263999999 b0=3.688 units=km normamp=650.0
new linecode.lc_159-3ph nphases=3 r1=0.096 x1=0.307999998 b1=3.77 r0=1.562000036 x0=0.243000001 b0=3.77 units=km normamp=890.0
new linecode.lc_160-3ph nphases=3 r1=0.096 x1=0.307999998 b1=3.77 r0=1.562000036 x0=0.243000001 b0=3.77 units=km normamp=335.0
new linecode.lc_161-3ph nphases=3 r1=0.096 x1=0.307999998 b1=3.77 r0=1.562000036 x0=0.243000001 b0=3.77 units=km normamp=510.0
new linecode.lc_162-3ph nphases=3 r1=0.096 x1=0.307999998 b1=3.77 r0=1.562000036 x0=0.243000001 b0=3.77 units=km normamp=575.0
new linecode.lc_163-3ph nphases=3 r1=0.096 x1=0.307999998 b1=3.77 r0=1.562000036 x0=0.243000001 b0=3.77 units=km normamp=730.0
new linecode.lc_164-3ph nphases=3 r1=0.88 x1=0.379999995 b1=3.04 r0=1.639999986 x0=1.029999971 b0=3.04 units=km normamp=99.0
new linecode.lc_165-3ph nphases=3 r1=0.88 x1=0.379999995 b1=3.04 r0=1.639999986 x0=1.029999971 b0=3.04 units=km normamp=136.0
new linecode.lc_166-3ph nphases=3 r1=0.88 x1=0.379999995 b1=3.04 r0=1.639999986 x0=1.029999971 b0=3.04 units=km normamp=150.0
new linecode.lc_167-3ph nphases=3 r1=0.88 x1=0.379999995 b1=3.04 r0=1.639999986 x0=1.029999971 b0=3.04 units=km normamp=185.0
new linecode.lc_168-3ph nphases=3 r1=0.611 x1=0.370000005 b1=3.14 r0=1.629999995 x0=0.765999973 b0=3.14 units=km normamp=121.0
new linecode.lc_169-3ph nphases=3 r1=0.611 x1=0.370000005 b1=3.14 r0=1.629999995 x0=0.765999973 b0=3.14 units=km normamp=170.0
new linecode.lc_170-3ph nphases=3 r1=0.611 x1=0.370000005 b1=3.14 r0=1.629999995 x0=0.765999973 b0=3.14 units=km normamp=185.0
new linecode.lc_171-3ph nphases=3 r1=0.611 x1=0.370000005 b1=3.14 r0=1.629999995 x0=0.765999973 b0=3.14 units=km normamp=230.0
new linecode.lc_172-3ph nphases=3 r1=0.391 x1=0.360000014 b1=3.26 r0=1.610000014 x0=0.540000022 b0=3.26 units=km normamp=155.0
new linecode.lc_173-3ph nphases=3 r1=0.391 x1=0.360000014 b1=3.26 r0=1.610000014 x0=0.540000022 b0=3.26 units=km normamp=220.0
new linecode.lc_174-3ph nphases=3 r1=0.391 x1=0.360000014 b1=3.26 r0=1.610000014 x0=0.540000022 b0=3.26 units=km normamp=245.0
new linecode.lc_175-3ph nphases=3 r1=0.391 x1=0.360000014 b1=3.26 r0=1.610000014 x0=0.540000022 b0=3.26 units=km normamp=305.0
new linecode.lc_176-3ph nphases=3 r1=0.245 x1=0.340000004 b1=3.42 r0=1.600000024 x0=0.400000006 b0=3.42 units=km normamp=205.0
new linecode.lc_177-3ph nphases=3 r1=0.245 x1=0.340000004 b1=3.42 r0=1.600000024 x0=0.400000006 b0=3.42 units=km normamp=290.0
new linecode.lc_178-3ph nphases=3 r1=0.245 x1=0.340000004 b1=3.42 r0=1.600000024 x0=0.400000006 b0=3.42 units=km normamp=325.0
new linecode.lc_179-3ph nphases=3 r1=0.245 x1=0.340000004 b1=3.42 r0=1.600000024 x0=0.400000006 b0=3.42 units=km normamp=355.0
new linecode.lc_180-3ph nphases=3 r1=0.245 x1=0.340000004 b1=3.42 r0=1.600000024 x0=0.400000006 b0=3.42 units=km normamp=385.0
new linecode.lc_181-3ph nphases=3 r1=0.245 x1=0.340000004 b1=3.42 r0=1.600000024 x0=0.400000006 b0=3.42 units=km normamp=410.0
new linecode.lc_182-3ph nphases=3 r1=0.194 x1=0.330000013 b1=3.5 r0=1.590000033 x0=0.340000004 b0=3.5 units=km normamp=570.0
new linecode.lc_183-3ph nphases=3 r1=0.194 x1=0.330000013 b1=3.5 r0=1.590000033 x0=0.340000004 b0=3.5 units=km normamp=300.0
new linecode.lc_184-3ph nphases=3 r1=0.194 x1=0.330000013 b1=3.5 r0=1.590000033 x0=0.340000004 b0=3.5 units=km normamp=290.0
new linecode.lc_185-3ph nphases=3 r1=0.194 x1=0.330000013 b1=3.5 r0=1.590000033 x0=0.340000004 b0=3.5 units=km normamp=335.0
new linecode.lc_186-3ph nphases=3 r1=0.194 x1=0.330000013 b1=3.5 r0=1.590000033 x0=0.340000004 b0=3.5 units=km normamp=375.0
new linecode.lc_187-3ph nphases=3 r1=0.194 x1=0.330000013 b1=3.5 r0=1.590000033 x0=0.340000004 b0=3.5 units=km normamp=445.0
new linecode.lc_188-3ph nphases=3 r1=0.194 x1=0.330000013 b1=3.5 r0=1.590000033 x0=0.340000004 b0=3.5 units=km normamp=475.0
new linecode.lc_189-3ph nphases=3 r1=0.145 x1=0.319999993 b1=3.6 r0=1.580000043 x0=0.289999992 b0=3.6 units=km normamp=680.0
new linecode.lc_190-3ph nphases=3 r1=0.145 x1=0.319999993 b1=3.6 r0=1.580000043 x0=0.289999992 b0=3.6 units=km normamp=270.0
new linecode.lc_191-3ph nphases=3 r1=0.145 x1=0.319999993 b1=3.6 r0=1.580000043 x0=0.289999992 b0=3.6 units=km normamp=395.0
new linecode.lc_192-3ph nphases=3 r1=0.145 x1=0.319999993 b1=3.6 r0=1.580000043 x0=0.289999992 b0=3.6 units=km normamp=445.0
new linecode.lc_193-3ph nphases=3 r1=0.145 x1=0.319999993 b1=3.6 r0=1.580000043 x0=0.289999992 b0=3.6 units=km normamp=565.0
new linecode.lc_194-3ph nphases=3 r1=0.091 x1=0.310000002 b1=3.8 r0=1.559999943 x0=0.239999995 b0=3.8 units=km normamp=915.0
new linecode.lc_195-3ph nphases=3 r1=0.091 x1=0.310000002 b1=3.8 r0=1.559999943 x0=0.239999995 b0=3.8 units=km normamp=345.0
new linecode.lc_196-3ph nphases=3 r1=0.091 x1=0.310000002 b1=3.8 r0=1.559999943 x0=0.239999995 b0=3.8 units=km normamp=525.0
new linecode.lc_197-3ph nphases=3 r1=0.091 x1=0.310000002 b1=3.8 r0=1.559999943 x0=0.239999995 b0=3.8 units=km normamp=590.0
new linecode.lc_198-3ph nphases=3 r1=0.091 x1=0.310000002 b1=3.8 r0=1.559999943 x0=0.239999995 b0=3.8 units=km normamp=750.0
new linecode.lc_199-3ph nphases=3 r1=0.076 x1=0.300000012 b1=3.88 r0=1.559999943 x0=0.219999999 b0=3.88 units=km normamp=1025.0
new linecode.lc_200-3ph nphases=3 r1=0.076 x1=0.300000012 b1=3.88 r0=1.559999943 x0=0.219999999 b0=3.88 units=km normamp=380.0
new linecode.lc_201-3ph nphases=3 r1=0.076 x1=0.300000012 b1=3.88 r0=1.559999943 x0=0.219999999 b0=3.88 units=km normamp=585.0
new linecode.lc_202-3ph nphases=3 r1=0.076 x1=0.300000012 b1=3.88 r0=1.559999943 x0=0.219999999 b0=3.88 units=km normamp=660.0
new linecode.lc_203-3ph nphases=3 r1=0.076 x1=0.300000012 b1=3.88 r0=1.559999943 x0=0.219999999 b0=3.88 units=km normamp=845.0
new linecode.lc_204-3ph nphases=3 r1=0.29 x1=0.353 b1=3.262 r0=1.608 x0=0.437 b0=3.262 units=km normamp=182.0
new linecode.lc_205-3ph nphases=3 r1=2.236 x1=0.589999974 b1=0.0001 r0=1.832000017 x0=2.391000032 b0=0.0001 units=km normamp=225.0
new linecode.lc_206-3ph nphases=3 r1=0.625 x1=0.414000005 b1=0.0001 r0=1.666000009 x0=0.773999989 b0=0.0001 units=km normamp=119.0
new linecode.lc_207-3ph nphases=3 r1=0.625 x1=0.414000005 b1=0.0001 r0=1.666000009 x0=0.773999989 b0=0.0001 units=km normamp=165.0
new linecode.lc_208-3ph nphases=3 r1=0.625 x1=0.414000005 b1=0.0001 r0=1.666000009 x0=0.773999989 b0=0.0001 units=km normamp=185.0
new linecode.lc_209-3ph nphases=3 r1=0.625 x1=0.414000005 b1=0.0001 r0=1.666000009 x0=0.773999989 b0=0.0001 units=km normamp=225.0
new linecode.lc_210-3ph nphases=3 r1=0.956 x1=0.414000005 b1=0.0001 r0=1.669999957 x0=1.105000019 b0=0.0001 units=km normamp=96.0
new linecode.lc_211-3ph nphases=3 r1=0.628 x1=0.412000001 b1=0.0001 r0=1.661999941 x0=0.776000023 b0=0.0001 units=km normamp=96.0
new linecode.lc_212-3ph nphases=3 r1=0.232 x1=0.374000013 b1=3.412 r0=1.631999969 x0=0.467000008 b0=3.412 units=km normamp=180.0
new linecode.lc_213-3ph nphases=3 r1=0.232 x1=0.374000013 b1=3.412 r0=1.631999969 x0=0.467000008 b0=3.412 units=km normamp=250.0
new linecode.lc_214-3ph nphases=3 r1=0.232 x1=0.374000013 b1=3.412 r0=1.631999969 x0=0.467000008 b0=3.412 units=km normamp=285.0
new linecode.lc_215-3ph nphases=3 r1=0.232 x1=0.374000013 b1=3.412 r0=1.631999969 x0=0.467000008 b0=3.412 units=km normamp=310.0
new linecode.lc_216-3ph nphases=3 r1=0.232 x1=0.374000013 b1=3.412 r0=1.631999969 x0=0.467000008 b0=3.412 units=km normamp=360.0
new linecode.lc_217-3ph nphases=3 r1=0.745 x1=0.416000009 b1=0.0001 r0=1.669999957 x0=0.838 b0=0.0001 units=km normamp=96.0
new linecode.lc_218-3ph nphases=3 r1=0.745 x1=0.416000009 b1=0.0001 r0=1.669999957 x0=0.838 b0=0.0001 units=km normamp=131.0
new linecode.lc_219-3ph nphases=3 r1=0.745 x1=0.416000009 b1=0.0001 r0=1.669999957 x0=0.838 b0=0.0001 units=km normamp=145.0
new linecode.lc_220-3ph nphases=3 r1=0.745 x1=0.416000009 b1=0.0001 r0=1.669999957 x0=0.838 b0=0.0001 units=km normamp=180.0
new linecode.lc_221-3ph nphases=3 r1=0.211 x1=0.123999998 b1=69.74 r0=0.334 x0=0.497999996 b0=69.74 units=km normamp=395.0
new linecode.lc_222-3ph nphases=3 r1=1.11 x1=0.162000001 b1=39.27 r0=0.351999998 x0=1.49000001 b0=39.27 units=km normamp=150.0
new linecode.lc_223-3ph nphases=3 r1=0.125 x1=0.340999991 b1=3.4 r0=1.595000029 x0=0.32100001 b0=3.4 units=km normamp=225.0
new linecode.lc_224-3ph nphases=3 r1=4.903 x1=0.4847 b1=0.0001 r0=1.7585 x0=5.0455 b0=0.0001 units=km normamp=25.0
new linecode.lc_225-3ph nphases=3 r1=4.903 x1=0.4847 b1=0.0001 r0=1.7585 x0=5.0455 b0=0.0001 units=km normamp=28.0
new linecode.lc_226-3ph nphases=3 r1=6.015 x1=0.746 b1=0.0001 r0=1.901 x0=6.164 b0=0.0001 units=km normamp=33.0
new linecode.lc_227-3ph nphases=3 r1=6.015 x1=0.746 b1=0.0001 r0=1.901 x0=6.164 b0=0.0001 units=km normamp=33.0
new linecode.lc_228-3ph nphases=3 r1=4.6 x1=1.2 b1=3.08 r0=1.2 x0=4.6 b0=3.08 units=km normamp=44.0
new linecode.lc_229-3ph nphases=3 r1=0.499 x1=0.377999991 b1=3.058 r0=1.633000016 x0=0.646000028 b0=3.058 units=km normamp=132.0
new linecode.lc_230-3ph nphases=3 r1=0.291 x1=0.338 b1=3.22 r0=1.611999989 x0=0.439000011 b0=3.22 units=km normamp=180.0
new linecode.lc_231-3ph nphases=3 r1=0.197 x1=0.344999999 b1=3.34 r0=1.600000024 x0=0.344999999 b0=3.34 units=km normamp=225.0
new linecode.lc_232-3ph nphases=3 r1=0.149 x1=0.337000012 b1=3.43 r0=1.590999961 x0=0.296999991 b0=3.43 units=km normamp=260.0
new linecode.lc_233-3ph nphases=3 r1=0.15 x1=0.335999996 b1=3.432 r0=1.590000033 x0=0.298000008 b0=3.432 units=km normamp=245.0
new linecode.lc_234-3ph nphases=3 r1=0.098 x1=0.321999997 b1=3.584 r0=1.577000022 x0=0.246000007 b0=3.584 units=km normamp=245.0
new linecode.lc_235-3ph nphases=3 r1=0.075 x1=0.314000011 b1=3.688 r0=1.567999959 x0=0.223000005 b0=3.688 units=km normamp=245.0
new linecode.lc_236-3ph nphases=3 r1=0.694 x1=0.386000007 b1=3.26 r0=1.639000058 x0=0.842999995 b0=3.26 units=km normamp=109.0
new linecode.lc_237-3ph nphases=3 r1=0.173 x1=0.316000015 b1=3.604 r0=1.57099998 x0=0.319999993 b0=3.604 units=km normamp=250.0
new linecode.lc_238-3ph nphases=3 r1=2.105 x1=0.319 b1=3.4 r0=1.7059 x0=0.319 b0=3.4 units=km normamp=53.0
new linecode.lc_239-3ph nphases=3 r1=0.13 x1=0.08 b1=83.0 r0=0.344 x0=0.938 b0=83.0 units=km normamp=420.0
new linecode.lc_240-3ph nphases=3 r1=0.055 x1=0.092 b1=127.86 r0=0.45 x0=0.84 b0=127.86 units=km normamp=655.0
new linecode.lc_241-3ph nphases=3 r1=0.164 x1=0.151 b1=69.7 r0=0.061 x0=1.36 b0=69.7 units=km normamp=348.0
new linecode.lc_242-3ph nphases=3 r1=0.868 x1=0.187 b1=39.308 r0=0.95 x0=2.064 b0=39.308 units=km normamp=129.0
new linecode.lc_243-3ph nphases=3 r1=0.208 x1=0.288 b1=69.7 r0=0.288 x0=0.208 b0=69.7 units=km normamp=370.0
new linecode.lc_244-3ph nphases=3 r1=1.11 x1=0.3077 b1=4.785 r0=1.625 x0=1.456 b0=4.785 units=km normamp=189.0