new transformer.HV_F0_LV0_TX phases=3 windings=2 buses=[HV_F0_N429 HV_F0_LV0_Busbar] conns=[delta wye] kVs=[22 0.433] kVAs=[50.0 50.0] XHL=2.46 %noloadloss=0.18 %loadloss=2.2 wdg=1 numtaps=5 tap=[1.] maxtap=1.137 mintap=1.028
new transformer.HV_F0_LV1_TX phases=3 windings=2 buses=[HV_F0_N614 HV_F0_LV1_Busbar] conns=[delta wye] kVs=[22 0.433] kVAs=[25.0 25.0] XHL=2.46 %noloadloss=0.18 %loadloss=2.2 wdg=1 numtaps=5 tap=[1.] maxtap=1.137 mintap=1.028
new transformer.HV_F0_LV2_TX phases=3 windings=2 buses=[HV_F0_N489 HV_F0_LV2_Busbar] conns=[delta wye] kVs=[22 0.433] kVAs=[50.0 50.0] XHL=2.46 %noloadloss=0.18 %loadloss=2.2 wdg=1 numtaps=5 tap=[1.] maxtap=1.137 mintap=1.028
new transformer.HV_F0_LV3_TX phases=3 windings=2 buses=[HV_F0_N536 HV_F0_LV3_Busbar] conns=[delta wye] kVs=[22 0.433] kVAs=[500.0 500.0] XHL=3.85 %noloadloss=0.12 %loadloss=1.3 wdg=1 numtaps=5 tap=[1.] maxtap=1.137 mintap=1.028
new transformer.HV_F0_LV4_TX phases=1 windings=3 buses=[HV_F0_N89.1.2 HV_F0_LV4_Busbar.1.0 HV_F0_LV4_Busbar.0.2] conns=[Delta Wye Wye] kVs=[22 0.25 0.25] kVAs=[50.0 50.0 50.0] XHL=2.46 %noloadloss=0.18 %loadloss=2.2 wdg=1 numtaps=5 tap=[1.] maxtap=1.137 mintap=1.028
new transformer.HV_F0_LV5_TX phases=3 windings=2 buses=[HV_F0_N187 HV_F0_LV5_Busbar] conns=[delta wye] kVs=[22 0.433] kVAs=[315.0 315.0] XHL=3.85 %noloadloss=0.12 %loadloss=1.3 wdg=1 numtaps=5 tap=[1.] maxtap=1.137 mintap=1.028
new transformer.HV_F0_LV6_TX phases=3 windings=2 buses=[HV_F0_N46 HV_F0_LV6_Busbar] conns=[delta wye] kVs=[22 0.433] kVAs=[500.0 500.0] XHL=3.85 %noloadloss=0.12 %loadloss=1.3 wdg=1 numtaps=5 tap=[1.] maxtap=1.137 mintap=1.028
new transformer.HV_F0_LV7_TX phases=3 windings=2 buses=[HV_F0_N62 HV_F0_LV7_Busbar] conns=[delta wye] kVs=[22 0.433] kVAs=[500.0 500.0] XHL=3.85 %noloadloss=0.12 %loadloss=1.3 wdg=1 numtaps=5 tap=[1.] maxtap=1.137 mintap=1.028
new transformer.HV_F0_LV8_TX phases=3 windings=2 buses=[HV_F0_N443 HV_F0_LV8_Busbar] conns=[delta wye] kVs=[22 0.433] kVAs=[500.0 500.0] XHL=3.85 %noloadloss=0.12 %loadloss=1.3 wdg=1 numtaps=5 tap=[1.] maxtap=1.137 mintap=1.028
new transformer.HV_F0_LV9_TX phases=3 windings=2 buses=[HV_F0_N537 HV_F0_LV9_Busbar] conns=[delta wye] kVs=[22 0.433] kVAs=[200.0 200.0] XHL=3.78 %noloadloss=0.13125 %loadloss=1.46875 wdg=1 numtaps=5 tap=[1.] maxtap=1.137 mintap=1.028
new transformer.HV_F0_LV10_TX phases=3 windings=2 buses=[HV_F0_N65 HV_F0_LV10_Busbar] conns=[delta wye] kVs=[22 0.433] kVAs=[500.0 500.0] XHL=3.85 %noloadloss=0.12 %loadloss=1.3 wdg=1 numtaps=5 tap=[1.] maxtap=1.137 mintap=1.028
new transformer.HV_F0_LV11_TX phases=3 windings=2 buses=[HV_F0_N587 HV_F0_LV11_Busbar] conns=[delta wye] kVs=[22 0.433] kVAs=[25.0 25.0] XHL=2.46 %noloadloss=0.18 %loadloss=2.2 wdg=1 numtaps=5 tap=[1.] maxtap=1.137 mintap=1.028
new transformer.HV_F0_LV12_TX phases=3 windings=2 buses=[HV_F0_N297 HV_F0_LV12_Busbar] conns=[delta wye] kVs=[22 0.433] kVAs=[200.0 200.0] XHL=3.78 %noloadloss=0.13125 %loadloss=1.46875 wdg=1 numtaps=5 tap=[1.] maxtap=1.137 mintap=1.028
new transformer.HV_F0_LV13_TX phases=3 windings=2 buses=[HV_F0_N127 HV_F0_LV13_Busbar] conns=[delta wye] kVs=[22 0.433] kVAs=[25.0 25.0] XHL=2.46 %noloadloss=0.18 %loadloss=2.2 wdg=1 numtaps=5 tap=[1.] maxtap=1.137 mintap=1.028
new transformer.HV_F0_LV14_TX phases=3 windings=2 buses=[HV_F0_N147 HV_F0_LV14_Busbar] conns=[delta wye] kVs=[22 0.433] kVAs=[50.0 50.0] XHL=2.46 %noloadloss=0.18 %loadloss=2.2 wdg=1 numtaps=5 tap=[1.] maxtap=1.137 mintap=1.028
new transformer.HV_F0_LV15_TX phases=3 windings=2 buses=[HV_F0_N435 HV_F0_LV15_Busbar] conns=[delta wye] kVs=[22 0.433] kVAs=[100.0 100.0] XHL=3.6 %noloadloss=0.145 %loadloss=1.75 wdg=1 numtaps=5 tap=[1.] maxtap=1.137 mintap=1.028
new transformer.HV_F0_LV16_TX phases=3 windings=2 buses=[HV_F0_N216 HV_F0_LV16_Busbar] conns=[delta wye] kVs=[22 0.433] kVAs=[500.0 500.0] XHL=3.85 %noloadloss=0.12 %loadloss=1.3 wdg=1 numtaps=5 tap=[1.] maxtap=1.137 mintap=1.028
new transformer.HV_F0_LV17_TX phases=3 windings=2 buses=[HV_F0_N90 HV_F0_LV17_Busbar] conns=[delta wye] kVs=[22 0.433] kVAs=[50.0 50.0] XHL=2.46 %noloadloss=0.18 %loadloss=2.2 wdg=1 numtaps=5 tap=[1.] maxtap=1.137 mintap=1.028
new transformer.HV_F0_LV18_TX phases=3 windings=2 buses=[HV_F0_N418 HV_F0_LV18_Busbar] conns=[delta wye] kVs=[22 0.433] kVAs=[300.0 300.0] XHL=3.78 %noloadloss=0.13125 %loadloss=1.46875 wdg=1 numtaps=5 tap=[1.] maxtap=1.137 mintap=1.028
new transformer.HV_F0_LV19_TX phases=3 windings=2 buses=[HV_F0_N426 HV_F0_LV19_Busbar] conns=[delta wye] kVs=[22 0.433] kVAs=[300.0 300.0] XHL=3.78 %noloadloss=0.13125 %loadloss=1.46875 wdg=1 numtaps=5 tap=[1.] maxtap=1.137 mintap=1.028
new transformer.HV_F0_LV20_TX phases=1 windings=3 buses=[HV_F0_N456.1.2 HV_F0_LV20_Busbar.1.0 HV_F0_LV20_Busbar.0.2] conns=[Delta Wye Wye] kVs=[22 0.25 0.25] kVAs=[25.0 25.0 25.0] XHL=2.46 %noloadloss=0.18 %loadloss=2.2 wdg=1 numtaps=5 tap=[1.] maxtap=1.137 mintap=1.028
new transformer.HV_F0_LV21_TX phases=1 windings=3 buses=[HV_F0_N550.1.3 HV_F0_LV21_Busbar.1.0 HV_F0_LV21_Busbar.0.2] conns=[Delta Wye Wye] kVs=[22 0.25 0.25] kVAs=[25.0 25.0 25.0] XHL=2.46 %noloadloss=0.18 %loadloss=2.2 wdg=1 numtaps=5 tap=[1.] maxtap=1.137 mintap=1.028
new transformer.HV_F0_LV22_TX phases=1 windings=3 buses=[HV_F0_N150.1.2 HV_F0_LV22_Busbar.1.0 HV_F0_LV22_Busbar.0.2] conns=[Delta Wye Wye] kVs=[22 0.25 0.25] kVAs=[10.0 10.0 10.0] XHL=2.46 %noloadloss=0.18 %loadloss=2.2 wdg=1 numtaps=5 tap=[1.] maxtap=1.137 mintap=1.028
new transformer.HV_F0_LV23_TX phases=3 windings=2 buses=[HV_F0_N250 HV_F0_LV23_Busbar] conns=[delta wye] kVs=[22 0.433] kVAs=[25.0 25.0] XHL=2.46 %noloadloss=0.18 %loadloss=2.2 wdg=1 numtaps=5 tap=[1.] maxtap=1.137 mintap=1.028
new transformer.HV_F0_LV24_TX phases=3 windings=2 buses=[HV_F0_N38 HV_F0_LV24_Busbar] conns=[delta wye] kVs=[22 0.433] kVAs=[10.0 10.0] XHL=2.46 %noloadloss=0.18 %loadloss=2.2 wdg=1 numtaps=5 tap=[1.] maxtap=1.137 mintap=1.028
new transformer.HV_F0_LV25_TX phases=3 windings=2 buses=[HV_F0_N563 HV_F0_LV25_Busbar] conns=[delta wye] kVs=[22 0.433] kVAs=[25.0 25.0] XHL=2.46 %noloadloss=0.18 %loadloss=2.2 wdg=1 numtaps=5 tap=[1.] maxtap=1.137 mintap=1.028
new transformer.HV_F0_LV26_TX phases=1 windings=3 buses=[HV_F0_N309.1.2 HV_F0_LV26_Busbar.1.0 HV_F0_LV26_Busbar.0.2] conns=[Delta Wye Wye] kVs=[22 0.25 0.25] kVAs=[10.0 10.0 10.0] XHL=2.46 %noloadloss=0.18 %loadloss=2.2 wdg=1 numtaps=5 tap=[1.] maxtap=1.137 mintap=1.028
new transformer.HV_F0_LV27_TX phases=1 windings=3 buses=[HV_F0_N189.1.2 HV_F0_LV27_Busbar.1.0 HV_F0_LV27_Busbar.0.2] conns=[Delta Wye Wye] kVs=[22 0.25 0.25] kVAs=[25.0 25.0 25.0] XHL=2.46 %noloadloss=0.18 %loadloss=2.2 wdg=1 numtaps=5 tap=[1.] maxtap=1.137 mintap=1.028
new transformer.HV_F0_LV28_TX phases=3 windings=2 buses=[HV_F0_N47 HV_F0_LV28_Busbar] conns=[delta wye] kVs=[22 0.433] kVAs=[500.0 500.0] XHL=3.85 %noloadloss=0.12 %loadloss=1.3 wdg=1 numtaps=5 tap=[1.] maxtap=1.137 mintap=1.028
new transformer.HV_F0_LV29_TX phases=3 windings=2 buses=[HV_F0_N343 HV_F0_LV29_Busbar] conns=[delta wye] kVs=[22 0.433] kVAs=[500.0 500.0] XHL=3.85 %noloadloss=0.12 %loadloss=1.3 wdg=1 numtaps=5 tap=[1.] maxtap=1.137 mintap=1.028
new transformer.HV_F0_LV30_TX phases=3 windings=2 buses=[HV_F0_N13 HV_F0_LV30_Busbar] conns=[delta wye] kVs=[22 0.433] kVAs=[100.0 100.0] XHL=3.6 %noloadloss=0.145 %loadloss=1.75 wdg=1 numtaps=5 tap=[1.] maxtap=1.137 mintap=1.028
new transformer.HV_F0_LV31_TX phases=3 windings=2 buses=[HV_F0_N44 HV_F0_LV31_Busbar] conns=[delta wye] kVs=[22 0.433] kVAs=[500.0 500.0] XHL=3.85 %noloadloss=0.12 %loadloss=1.3 wdg=1 numtaps=5 tap=[1.] maxtap=1.137 mintap=1.028
new transformer.HV_F0_LV32_TX phases=3 windings=2 buses=[HV_F0_N54 HV_F0_LV32_Busbar] conns=[delta wye] kVs=[22 0.433] kVAs=[500.0 500.0] XHL=3.85 %noloadloss=0.12 %loadloss=1.3 wdg=1 numtaps=5 tap=[1.] maxtap=1.137 mintap=1.028
new transformer.HV_F0_LV33_TX phases=3 windings=2 buses=[HV_F0_N502 HV_F0_LV33_Busbar] conns=[delta wye] kVs=[22 0.433] kVAs=[500.0 500.0] XHL=3.85 %noloadloss=0.12 %loadloss=1.3 wdg=1 numtaps=5 tap=[1.] maxtap=1.137 mintap=1.028
new transformer.HV_F0_LV34_TX phases=3 windings=2 buses=[HV_F0_N371 HV_F0_LV34_Busbar] conns=[delta wye] kVs=[22 0.433] kVAs=[10.0 10.0] XHL=2.46 %noloadloss=0.18 %loadloss=2.2 wdg=1 numtaps=5 tap=[1.] maxtap=1.137 mintap=1.028
new transformer.HV_F0_LV35_TX phases=3 windings=2 buses=[HV_F0_N586 HV_F0_LV35_Busbar] conns=[delta wye] kVs=[22 0.433] kVAs=[300.0 300.0] XHL=3.78 %noloadloss=0.13125 %loadloss=1.46875 wdg=1 numtaps=5 tap=[1.] maxtap=1.137 mintap=1.028
new transformer.HV_F0_LV36_TX phases=3 windings=2 buses=[HV_F0_N533 HV_F0_LV36_Busbar] conns=[delta wye] kVs=[22 0.433] kVAs=[500.0 500.0] XHL=3.85 %noloadloss=0.12 %loadloss=1.3 wdg=1 numtaps=5 tap=[1.] maxtap=1.137 mintap=1.028
new transformer.HV_F0_LV37_TX phases=3 windings=2 buses=[HV_F0_N245 HV_F0_LV37_Busbar] conns=[delta wye] kVs=[22 0.433] kVAs=[750.0 750.0] XHL=4.88 %noloadloss=0.102 %loadloss=1.1 wdg=1 numtaps=5 tap=[1.] maxtap=1.137 mintap=1.028
new transformer.HV_F0_LV38_TX phases=3 windings=2 buses=[HV_F0_N641 HV_F0_LV38_Busbar] conns=[delta wye] kVs=[22 0.433] kVAs=[500.0 500.0] XHL=3.85 %noloadloss=0.12 %loadloss=1.3 wdg=1 numtaps=5 tap=[1.] maxtap=1.137 mintap=1.028
new transformer.HV_F0_LV39_TX phases=1 windings=3 buses=[HV_F0_N420.1.2 HV_F0_LV39_Busbar.1.0 HV_F0_LV39_Busbar.0.2] conns=[Delta Wye Wye] kVs=[22 0.25 0.25] kVAs=[25.0 25.0 25.0] XHL=2.46 %noloadloss=0.18 %loadloss=2.2 wdg=1 numtaps=5 tap=[1.] maxtap=1.137 mintap=1.028
new transformer.HV_F0_LV40_TX phases=1 windings=3 buses=[HV_F0_N310.1.2 HV_F0_LV40_Busbar.1.0 HV_F0_LV40_Busbar.0.2] conns=[Delta Wye Wye] kVs=[22 0.25 0.25] kVAs=[10.0 10.0 10.0] XHL=2.46 %noloadloss=0.18 %loadloss=2.2 wdg=1 numtaps=5 tap=[1.] maxtap=1.137 mintap=1.028
new transformer.HV_F0_LV41_TX phases=3 windings=2 buses=[HV_F0_N596 HV_F0_LV41_Busbar] conns=[delta wye] kVs=[22 0.433] kVAs=[1500.0 1500.0] XHL=6.19 %noloadloss=0.076 %loadloss=0.88 wdg=1 numtaps=5 tap=[1.] maxtap=1.137 mintap=1.028
new transformer.HV_F0_LV42_TX phases=3 windings=2 buses=[HV_F0_N369 HV_F0_LV42_Busbar] conns=[delta wye] kVs=[22 0.433] kVAs=[10.0 10.0] XHL=2.46 %noloadloss=0.18 %loadloss=2.2 wdg=1 numtaps=5 tap=[1.] maxtap=1.137 mintap=1.028
new transformer.HV_F0_LV43_TX phases=3 windings=2 buses=[HV_F0_N508 HV_F0_LV43_Busbar] conns=[delta wye] kVs=[22 0.433] kVAs=[500.0 500.0] XHL=3.85 %noloadloss=0.12 %loadloss=1.3 wdg=1 numtaps=5 tap=[1.] maxtap=1.137 mintap=1.028
new transformer.HV_F0_LV44_TX phases=3 windings=2 buses=[HV_F0_N355 HV_F0_LV44_Busbar] conns=[delta wye] kVs=[22 0.433] kVAs=[63.0 63.0] XHL=3.6 %noloadloss=0.145 %loadloss=1.75 wdg=1 numtaps=5 tap=[1.] maxtap=1.137 mintap=1.028
new transformer.HV_F0_LV45_TX phases=3 windings=2 buses=[HV_F0_N246 HV_F0_LV45_Busbar] conns=[delta wye] kVs=[22 0.433] kVAs=[500.0 500.0] XHL=3.85 %noloadloss=0.12 %loadloss=1.3 wdg=1 numtaps=5 tap=[1.] maxtap=1.137 mintap=1.028
new transformer.HV_F0_LV46_TX phases=3 windings=2 buses=[HV_F0_N549 HV_F0_LV46_Busbar] conns=[delta wye] kVs=[22 0.433] kVAs=[500.0 500.0] XHL=3.85 %noloadloss=0.12 %loadloss=1.3 wdg=1 numtaps=5 tap=[1.] maxtap=1.137 mintap=1.028
new transformer.HV_F0_LV47_TX phases=1 windings=3 buses=[HV_F0_N370.1.2 HV_F0_LV47_Busbar.1.0 HV_F0_LV47_Busbar.0.2] conns=[Delta Wye Wye] kVs=[22 0.25 0.25] kVAs=[50.0 50.0 50.0] XHL=2.46 %noloadloss=0.18 %loadloss=2.2 wdg=1 numtaps=5 tap=[1.] maxtap=1.137 mintap=1.028
new transformer.HV_F0_LV48_TX phases=3 windings=2 buses=[HV_F0_N149 HV_F0_LV48_Busbar] conns=[delta wye] kVs=[22 0.433] kVAs=[315.0 315.0] XHL=3.85 %noloadloss=0.12 %loadloss=1.3 wdg=1 numtaps=5 tap=[1.] maxtap=1.137 mintap=1.028
new transformer.HV_F0_LV49_TX phases=3 windings=2 buses=[HV_F0_N414 HV_F0_LV49_Busbar] conns=[delta wye] kVs=[22 0.433] kVAs=[10.0 10.0] XHL=2.46 %noloadloss=0.18 %loadloss=2.2 wdg=1 numtaps=5 tap=[1.] maxtap=1.137 mintap=1.028
new transformer.HV_F0_LV50_TX phases=3 windings=2 buses=[HV_F0_N490 HV_F0_LV50_Busbar] conns=[delta wye] kVs=[22 0.433] kVAs=[10.0 10.0] XHL=2.46 %noloadloss=0.18 %loadloss=2.2 wdg=1 numtaps=5 tap=[1.] maxtap=1.137 mintap=1.028
new transformer.HV_F0_LV51_TX phases=3 windings=2 buses=[HV_F0_N67 HV_F0_LV51_Busbar] conns=[delta wye] kVs=[22 0.433] kVAs=[500.0 500.0] XHL=3.85 %noloadloss=0.12 %loadloss=1.3 wdg=1 numtaps=5 tap=[1.] maxtap=1.137 mintap=1.028
new transformer.HV_F0_LV52_TX phases=1 windings=3 buses=[HV_F0_N419.1.2 HV_F0_LV52_Busbar.1.0 HV_F0_LV52_Busbar.0.2] conns=[Delta Wye Wye] kVs=[22 0.25 0.25] kVAs=[10.0 10.0 10.0] XHL=2.46 %noloadloss=0.18 %loadloss=2.2 wdg=1 numtaps=5 tap=[1.] maxtap=1.137 mintap=1.028
new transformer.HV_F0_LV53_TX phases=1 windings=3 buses=[HV_F0_N457.1.2 HV_F0_LV53_Busbar.1.0 HV_F0_LV53_Busbar.0.2] conns=[Delta Wye Wye] kVs=[22 0.25 0.25] kVAs=[10.0 10.0 10.0] XHL=2.46 %noloadloss=0.18 %loadloss=2.2 wdg=1 numtaps=5 tap=[1.] maxtap=1.137 mintap=1.028
new transformer.HV_F0_LV54_TX phases=3 windings=2 buses=[HV_F0_N632 HV_F0_LV54_Busbar] conns=[delta wye] kVs=[22 0.433] kVAs=[200.0 200.0] XHL=3.78 %noloadloss=0.13125 %loadloss=1.46875 wdg=1 numtaps=5 tap=[1.] maxtap=1.137 mintap=1.028
new transformer.HV_F0_LV55_TX phases=1 windings=3 buses=[HV_F0_N330.1.2 HV_F0_LV55_Busbar.1.0 HV_F0_LV55_Busbar.0.2] conns=[Delta Wye Wye] kVs=[22 0.25 0.25] kVAs=[50.0 50.0 50.0] XHL=2.46 %noloadloss=0.18 %loadloss=2.2 wdg=1 numtaps=5 tap=[1.] maxtap=1.137 mintap=1.028
new transformer.HV_F0_LV56_TX phases=3 windings=2 buses=[HV_F0_N454 HV_F0_LV56_Busbar] conns=[delta wye] kVs=[22 0.433] kVAs=[25.0 25.0] XHL=2.46 %noloadloss=0.18 %loadloss=2.2 wdg=1 numtaps=5 tap=[1.] maxtap=1.137 mintap=1.028
new transformer.HV_F0_LV57_TX phases=3 windings=2 buses=[HV_F0_N620 HV_F0_LV57_Busbar] conns=[delta wye] kVs=[22 0.433] kVAs=[25.0 25.0] XHL=2.46 %noloadloss=0.18 %loadloss=2.2 wdg=1 numtaps=5 tap=[1.] maxtap=1.137 mintap=1.028
new transformer.HV_F0_LV58_TX phases=1 windings=3 buses=[HV_F0_N360.1.2 HV_F0_LV58_Busbar.1.0 HV_F0_LV58_Busbar.0.2] conns=[Delta Wye Wye] kVs=[22 0.25 0.25] kVAs=[25.0 25.0 25.0] XHL=2.46 %noloadloss=0.18 %loadloss=2.2 wdg=1 numtaps=5 tap=[1.] maxtap=1.137 mintap=1.028
new transformer.HV_F0_LV59_TX phases=3 windings=2 buses=[HV_F0_N76 HV_F0_LV59_Busbar] conns=[delta wye] kVs=[22 0.433] kVAs=[300.0 300.0] XHL=3.78 %noloadloss=0.13125 %loadloss=1.46875 wdg=1 numtaps=5 tap=[1.] maxtap=1.137 mintap=1.028
new transformer.HV_F0_LV60_TX phases=3 windings=2 buses=[HV_F0_N233 HV_F0_LV60_Busbar] conns=[delta wye] kVs=[22 0.433] kVAs=[63.0 63.0] XHL=3.6 %noloadloss=0.145 %loadloss=1.75 wdg=1 numtaps=5 tap=[1.] maxtap=1.137 mintap=1.028
new transformer.HV_F0_LV61_TX phases=3 windings=2 buses=[HV_F0_N522 HV_F0_LV61_Busbar] conns=[delta wye] kVs=[22 0.433] kVAs=[500.0 500.0] XHL=3.85 %noloadloss=0.12 %loadloss=1.3 wdg=1 numtaps=5 tap=[1.] maxtap=1.137 mintap=1.028
new transformer.HV_F0_LV62_TX phases=1 windings=3 buses=[HV_F0_N397.1.2 HV_F0_LV62_Busbar.1.0 HV_F0_LV62_Busbar.0.2] conns=[Delta Wye Wye] kVs=[22 0.25 0.25] kVAs=[50.0 50.0 50.0] XHL=2.46 %noloadloss=0.18 %loadloss=2.2 wdg=1 numtaps=5 tap=[1.] maxtap=1.137 mintap=1.028
new transformer.HV_F0_LV63_TX phases=3 windings=2 buses=[HV_F0_N143 HV_F0_LV63_Busbar] conns=[delta wye] kVs=[22 0.433] kVAs=[500.0 500.0] XHL=3.85 %noloadloss=0.12 %loadloss=1.3 wdg=1 numtaps=5 tap=[1.] maxtap=1.137 mintap=1.028
new transformer.HV_F0_LV64_TX phases=3 windings=2 buses=[HV_F0_N52 HV_F0_LV64_Busbar] conns=[delta wye] kVs=[22 0.433] kVAs=[300.0 300.0] XHL=3.78 %noloadloss=0.13125 %loadloss=1.46875 wdg=1 numtaps=5 tap=[1.] maxtap=1.137 mintap=1.028
new transformer.HV_F0_LV65_TX phases=1 windings=3 buses=[HV_F0_N485.1.2 HV_F0_LV65_Busbar.1.0 HV_F0_LV65_Busbar.0.2] conns=[Delta Wye Wye] kVs=[22 0.25 0.25] kVAs=[10.0 10.0 10.0] XHL=2.46 %noloadloss=0.18 %loadloss=2.2 wdg=1 numtaps=5 tap=[1.] maxtap=1.137 mintap=1.028
new transformer.HV_F0_LV66_TX phases=1 windings=3 buses=[HV_F0_N409.1.2 HV_F0_LV66_Busbar.1.0 HV_F0_LV66_Busbar.0.2] conns=[Delta Wye Wye] kVs=[22 0.25 0.25] kVAs=[10.0 10.0 10.0] XHL=2.46 %noloadloss=0.18 %loadloss=2.2 wdg=1 numtaps=5 tap=[1.] maxtap=1.137 mintap=1.028
new transformer.HV_F0_LV67_TX phases=3 windings=2 buses=[HV_F0_N163 HV_F0_LV67_Busbar] conns=[delta wye] kVs=[22 0.433] kVAs=[500.0 500.0] XHL=3.85 %noloadloss=0.12 %loadloss=1.3 wdg=1 numtaps=5 tap=[1.] maxtap=1.137 mintap=1.028
new transformer.HV_F0_LV68_TX phases=3 windings=2 buses=[HV_F0_N156 HV_F0_LV68_Busbar] conns=[delta wye] kVs=[22 0.433] kVAs=[500.0 500.0] XHL=3.85 %noloadloss=0.12 %loadloss=1.3 wdg=1 numtaps=5 tap=[1.] maxtap=1.137 mintap=1.028
new transformer.HV_F0_LV69_TX phases=1 windings=3 buses=[HV_F0_N337.1.2 HV_F0_LV69_Busbar.1.0 HV_F0_LV69_Busbar.0.2] conns=[Delta Wye Wye] kVs=[22 0.25 0.25] kVAs=[25.0 25.0 25.0] XHL=2.46 %noloadloss=0.18 %loadloss=2.2 wdg=1 numtaps=5 tap=[1.] maxtap=1.137 mintap=1.028
new transformer.HV_F0_LV70_TX phases=3 windings=2 buses=[HV_F0_N382 HV_F0_LV70_Busbar] conns=[delta wye] kVs=[22 0.433] kVAs=[10.0 10.0] XHL=2.46 %noloadloss=0.18 %loadloss=2.2 wdg=1 numtaps=5 tap=[1.] maxtap=1.137 mintap=1.028
new transformer.HV_F0_LV71_TX phases=3 windings=2 buses=[HV_F0_N532 HV_F0_LV71_Busbar] conns=[delta wye] kVs=[22 0.433] kVAs=[25.0 25.0] XHL=2.46 %noloadloss=0.18 %loadloss=2.2 wdg=1 numtaps=5 tap=[1.] maxtap=1.137 mintap=1.028
new transformer.HV_F0_LV72_TX phases=3 windings=2 buses=[HV_F0_N450 HV_F0_LV72_Busbar] conns=[delta wye] kVs=[22 0.433] kVAs=[25.0 25.0] XHL=2.46 %noloadloss=0.18 %loadloss=2.2 wdg=1 numtaps=5 tap=[1.] maxtap=1.137 mintap=1.028
new transformer.HV_F0_LV73_TX phases=3 windings=2 buses=[HV_F0_N268 HV_F0_LV73_Busbar] conns=[delta wye] kVs=[22 0.433] kVAs=[50.0 50.0] XHL=2.46 %noloadloss=0.18 %loadloss=2.2 wdg=1 numtaps=5 tap=[1.] maxtap=1.137 mintap=1.028
new transformer.HV_F0_LV74_TX phases=3 windings=2 buses=[HV_F0_N407 HV_F0_LV74_Busbar] conns=[delta wye] kVs=[22 0.433] kVAs=[500.0 500.0] XHL=3.85 %noloadloss=0.12 %loadloss=1.3 wdg=1 numtaps=5 tap=[1.] maxtap=1.137 mintap=1.028
new transformer.HV_F0_LV75_TX phases=3 windings=2 buses=[HV_F0_N521 HV_F0_LV75_Busbar] conns=[delta wye] kVs=[22 0.433] kVAs=[750.0 750.0] XHL=4.88 %noloadloss=0.102 %loadloss=1.1 wdg=1 numtaps=5 tap=[1.] maxtap=1.137 mintap=1.028
new transformer.HV_F0_LV76_TX phases=3 windings=2 buses=[HV_F0_N513 HV_F0_LV76_Busbar] conns=[delta wye] kVs=[22 0.433] kVAs=[63.0 63.0] XHL=3.6 %noloadloss=0.145 %loadloss=1.75 wdg=1 numtaps=5 tap=[1.] maxtap=1.137 mintap=1.028
new transformer.HV_F0_LV77_TX phases=1 windings=3 buses=[HV_F0_N580.1.2 HV_F0_LV77_Busbar.1.0 HV_F0_LV77_Busbar.0.2] conns=[Delta Wye Wye] kVs=[22 0.25 0.25] kVAs=[10.0 10.0 10.0] XHL=2.46 %noloadloss=0.18 %loadloss=2.2 wdg=1 numtaps=5 tap=[1.] maxtap=1.137 mintap=1.028
new transformer.HV_F0_LV78_TX phases=3 windings=2 buses=[HV_F0_N354 HV_F0_LV78_Busbar] conns=[delta wye] kVs=[22 0.433] kVAs=[500.0 500.0] XHL=3.85 %noloadloss=0.12 %loadloss=1.3 wdg=1 numtaps=5 tap=[1.] maxtap=1.137 mintap=1.028
