new load.hv_f0_lv0_f0_c0 phases=1 bus1=hv_f0_lv0_f0_c0.1 pf=0.95 conn=w kv=0.23 kw=1 Vminpu=0.85 Vmaxpu=1.20 model=1 status=variable
new load.hv_f0_lv0_f0_c1 phases=1 bus1=hv_f0_lv0_f0_c1.2 pf=0.95 conn=w kv=0.23 kw=1 Vminpu=0.85 Vmaxpu=1.20 model=1 status=variable
new load.hv_f0_lv0_f0_c2 phases=1 bus1=hv_f0_lv0_f0_c2.3 pf=0.95 conn=w kv=0.23 kw=1 Vminpu=0.85 Vmaxpu=1.20 model=1 status=variable
new load.hv_f0_lv0_f0_c3 phases=1 bus1=hv_f0_lv0_f0_c3.1 pf=0.95 conn=w kv=0.23 kw=1 Vminpu=0.85 Vmaxpu=1.20 model=1 status=variable
new load.hv_f0_lv0_f0_c4 phases=1 bus1=hv_f0_lv0_f0_c4.2 pf=0.95 conn=w kv=0.23 kw=1 Vminpu=0.85 Vmaxpu=1.20 model=1 status=variable
new load.hv_f0_lv0_f0_c5 phases=1 bus1=hv_f0_lv0_f0_c5.3 pf=0.95 conn=w kv=0.23 kw=1 Vminpu=0.85 Vmaxpu=1.20 model=1 status=variable
new load.hv_f0_lv0_f0_c6 phases=1 bus1=hv_f0_lv0_f0_c6.1 pf=0.95 conn=w kv=0.23 kw=1 Vminpu=0.85 Vmaxpu=1.20 model=1 status=variable
new load.hv_f0_lv0_f0_c7 phases=1 bus1=hv_f0_lv0_f0_c7.2 pf=0.95 conn=w kv=0.23 kw=1 Vminpu=0.85 Vmaxpu=1.20 model=1 status=variable
new load.hv_f0_lv0_f0_c8 phases=1 bus1=hv_f0_lv0_f0_c8.3 pf=0.95 conn=w kv=0.23 kw=1 Vminpu=0.85 Vmaxpu=1.20 model=1 status=variable
new load.hv_f0_lv0_f0_c9 phases=1 bus1=hv_f0_lv0_f0_c9.1 pf=0.95 conn=w kv=0.23 kw=1 Vminpu=0.85 Vmaxpu=1.20 model=1 status=variable
new load.hv_f0_lv0_f0_c10 phases=1 bus1=hv_f0_lv0_f0_c10.2 pf=0.95 conn=w kv=0.23 kw=1 Vminpu=0.85 Vmaxpu=1.20 model=1 status=variable
new load.hv_f0_lv0_f0_c11 phases=1 bus1=hv_f0_lv0_f0_c11.3 pf=0.95 conn=w kv=0.23 kw=1 Vminpu=0.85 Vmaxpu=1.20 model=1 status=variable
new load.hv_f0_lv1_f0_c0 phases=1 bus1=hv_f0_lv1_f0_c0.1 pf=0.95 conn=w kv=0.23 kw=1 Vminpu=0.85 Vmaxpu=1.20 model=1 status=variable
new load.hv_f0_lv1_f0_c1 phases=1 bus1=hv_f0_lv1_f0_c1.2 pf=0.95 conn=w kv=0.23 kw=1 Vminpu=0.85 Vmaxpu=1.20 model=1 status=variable
new load.hv_f0_lv1_f0_c2 phases=1 bus1=hv_f0_lv1_f0_c2.3 pf=0.95 conn=w kv=0.23 kw=1 Vminpu=0.85 Vmaxpu=1.20 model=1 status=variable
new load.hv_f0_lv2_f0_c0 phases=1 bus1=hv_f0_lv2_f0_c0.1 pf=0.95 conn=w kv=0.23 kw=1 Vminpu=0.85 Vmaxpu=1.20 model=1 status=variable
new load.hv_f0_lv2_f0_c1 phases=1 bus1=hv_f0_lv2_f0_c1.2 pf=0.95 conn=w kv=0.23 kw=1 Vminpu=0.85 Vmaxpu=1.20 model=1 status=variable
new load.hv_f0_lv2_f0_c2 phases=1 bus1=hv_f0_lv2_f0_c2.3 pf=0.95 conn=w kv=0.23 kw=1 Vminpu=0.85 Vmaxpu=1.20 model=1 status=variable
new load.hv_f0_lv2_f0_c3 phases=1 bus1=hv_f0_lv2_f0_c3.1 pf=0.95 conn=w kv=0.23 kw=1 Vminpu=0.85 Vmaxpu=1.20 model=1 status=variable
new load.hv_f0_lv2_f0_c4 phases=1 bus1=hv_f0_lv2_f0_c4.2 pf=0.95 conn=w kv=0.23 kw=1 Vminpu=0.85 Vmaxpu=1.20 model=1 status=variable
new load.hv_f0_lv2_f0_c5 phases=1 bus1=hv_f0_lv2_f0_c5.3 pf=0.95 conn=w kv=0.23 kw=1 Vminpu=0.85 Vmaxpu=1.20 model=1 status=variable
new load.hv_f0_lv2_f0_c6 phases=1 bus1=hv_f0_lv2_f0_c6.1 pf=0.95 conn=w kv=0.23 kw=1 Vminpu=0.85 Vmaxpu=1.20 model=1 status=variable
new load.hv_f0_lv2_f0_c7 phases=1 bus1=hv_f0_lv2_f0_c7.2 pf=0.95 conn=w kv=0.23 kw=1 Vminpu=0.85 Vmaxpu=1.20 model=1 status=variable
new load.hv_f0_lv2_f0_c8 phases=1 bus1=hv_f0_lv2_f0_c8.3 pf=0.95 conn=w kv=0.23 kw=1 Vminpu=0.85 Vmaxpu=1.20 model=1 status=variable
new load.hv_f0_lv3_f0_c0 phases=1 bus1=hv_f0_lv3_f0_c0.1 pf=0.95 conn=w kv=0.23 kw=1 Vminpu=0.85 Vmaxpu=1.20 model=1 status=variable
new load.hv_f0_lv3_f0_c1 phases=1 bus1=hv_f0_lv3_f0_c1.2 pf=0.95 conn=w kv=0.23 kw=1 Vminpu=0.85 Vmaxpu=1.20 model=1 status=variable
new load.hv_f0_lv3_f0_c2 phases=1 bus1=hv_f0_lv3_f0_c2.3 pf=0.95 conn=w kv=0.23 kw=1 Vminpu=0.85 Vmaxpu=1.20 model=1 status=variable
new load.hv_f0_lv3_f0_c3 phases=1 bus1=hv_f0_lv3_f0_c3.1 pf=0.95 conn=w kv=0.23 kw=1 Vminpu=0.85 Vmaxpu=1.20 model=1 status=variable
new load.hv_f0_lv3_f0_c4 phases=1 bus1=hv_f0_lv3_f0_c4.2 pf=0.95 conn=w kv=0.23 kw=1 Vminpu=0.85 Vmaxpu=1.20 model=1 status=variable
new load.hv_f0_lv3_f0_c5 phases=1 bus1=hv_f0_lv3_f0_c5.3 pf=0.95 conn=w kv=0.23 kw=1 Vminpu=0.85 Vmaxpu=1.20 model=1 status=variable
new load.hv_f0_lv3_f0_c6 phases=1 bus1=hv_f0_lv3_f0_c6.1 pf=0.95 conn=w kv=0.23 kw=1 Vminpu=0.85 Vmaxpu=1.20 model=1 status=variable
new load.hv_f0_lv3_f0_c7 phases=1 bus1=hv_f0_lv3_f0_c7.2 pf=0.95 conn=w kv=0.23 kw=1 Vminpu=0.85 Vmaxpu=1.20 model=1 status=variable
new load.hv_f0_lv3_f0_c8 phases=1 bus1=hv_f0_lv3_f0_c8.3 pf=0.95 conn=w kv=0.23 kw=1 Vminpu=0.85 Vmaxpu=1.20 model=1 status=variable
new load.hv_f0_lv3_f0_c9 phases=1 bus1=hv_f0_lv3_f0_c9.1 pf=0.95 conn=w kv=0.23 kw=1 Vminpu=0.85 Vmaxpu=1.20 model=1 status=variable
new load.hv_f0_lv3_f0_c10 phases=1 bus1=hv_f0_lv3_f0_c10.2 pf=0.95 conn=w kv=0.23 kw=1 Vminpu=0.85 Vmaxpu=1.20 model=1 status=variable
new load.hv_f0_lv3_f0_c11 phases=1 bus1=hv_f0_lv3_f0_c11.3 pf=0.95 conn=w kv=0.23 kw=1 Vminpu=0.85 Vmaxpu=1.20 model=1 status=variable
new load.hv_f0_lv3_f0_c12 phases=1 bus1=hv_f0_lv3_f0_c12.1 pf=0.95 conn=w kv=0.23 kw=1 Vminpu=0.85 Vmaxpu=1.20 model=1 status=variable
new load.hv_f0_lv3_f0_c13 phases=1 bus1=hv_f0_lv3_f0_c13.2 pf=0.95 conn=w kv=0.23 kw=1 Vminpu=0.85 Vmaxpu=1.20 model=1 status=variable
new load.hv_f0_lv3_f0_c14 phases=1 bus1=hv_f0_lv3_f0_c14.3 pf=0.95 conn=w kv=0.23 kw=1 Vminpu=0.85 Vmaxpu=1.20 model=1 status=variable
new load.hv_f0_lv3_f0_c15 phases=1 bus1=hv_f0_lv3_f0_c15.1 pf=0.95 conn=w kv=0.23 kw=1 Vminpu=0.85 Vmaxpu=1.20 model=1 status=variable
new load.hv_f0_lv3_f0_c16 phases=1 bus1=hv_f0_lv3_f0_c16.2 pf=0.95 conn=w kv=0.23 kw=1 Vminpu=0.85 Vmaxpu=1.20 model=1 status=variable
new load.hv_f0_lv3_f0_c17 phases=1 bus1=hv_f0_lv3_f0_c17.3 pf=0.95 conn=w kv=0.23 kw=1 Vminpu=0.85 Vmaxpu=1.20 model=1 status=variable
new load.hv_f0_lv3_f0_c18 phases=1 bus1=hv_f0_lv3_f0_c18.1 pf=0.95 conn=w kv=0.23 kw=1 Vminpu=0.85 Vmaxpu=1.20 model=1 status=variable
new load.hv_f0_lv3_f0_c19 phases=1 bus1=hv_f0_lv3_f0_c19.2 pf=0.95 conn=w kv=0.23 kw=1 Vminpu=0.85 Vmaxpu=1.20 model=1 status=variable
new load.hv_f0_lv3_f0_c20 phases=1 bus1=hv_f0_lv3_f0_c20.3 pf=0.95 conn=w kv=0.23 kw=1 Vminpu=0.85 Vmaxpu=1.20 model=1 status=variable
new load.hv_f0_lv3_f0_c21 phases=1 bus1=hv_f0_lv3_f0_c21.1 pf=0.95 conn=w kv=0.23 kw=1 Vminpu=0.85 Vmaxpu=1.20 model=1 status=variable
new load.hv_f0_lv3_f0_c22 phases=1 bus1=hv_f0_lv3_f0_c22.2 pf=0.95 conn=w kv=0.23 kw=1 Vminpu=0.85 Vmaxpu=1.20 model=1 status=variable
new load.hv_f0_lv3_f0_c23 phases=1 bus1=hv_f0_lv3_f0_c23.3 pf=0.95 conn=w kv=0.23 kw=1 Vminpu=0.85 Vmaxpu=1.20 model=1 status=variable
new load.hv_f0_lv3_f0_c24 phases=1 bus1=hv_f0_lv3_f0_c24.1 pf=0.95 conn=w kv=0.23 kw=1 Vminpu=0.85 Vmaxpu=1.20 model=1 status=variable
new load.hv_f0_lv3_f0_c25 phases=1 bus1=hv_f0_lv3_f0_c25.2 pf=0.95 conn=w kv=0.23 kw=1 Vminpu=0.85 Vmaxpu=1.20 model=1 status=variable
new load.hv_f0_lv3_f0_c26 phases=1 bus1=hv_f0_lv3_f0_c26.3 pf=0.95 conn=w kv=0.23 kw=1 Vminpu=0.85 Vmaxpu=1.20 model=1 status=variable
new load.hv_f0_lv3_f0_c27 phases=1 bus1=hv_f0_lv3_f0_c27.1 pf=0.95 conn=w kv=0.23 kw=1 Vminpu=0.85 Vmaxpu=1.20 model=1 status=variable
new load.hv_f0_lv3_f0_c28 phases=1 bus1=hv_f0_lv3_f0_c28.2 pf=0.95 conn=w kv=0.23 kw=1 Vminpu=0.85 Vmaxpu=1.20 model=1 status=variable
new load.hv_f0_lv3_f0_c29 phases=1 bus1=hv_f0_lv3_f0_c29.3 pf=0.95 conn=w kv=0.23 kw=1 Vminpu=0.85 Vmaxpu=1.20 model=1 status=variable
new load.hv_f0_lv3_f0_c30 phases=1 bus1=hv_f0_lv3_f0_c30.1 pf=0.95 conn=w kv=0.23 kw=1 Vminpu=0.85 Vmaxpu=1.20 model=1 status=variable
new load.hv_f0_lv3_f0_c31 phases=1 bus1=hv_f0_lv3_f0_c31.2 pf=0.95 conn=w kv=0.23 kw=1 Vminpu=0.85 Vmaxpu=1.20 model=1 status=variable
new load.hv_f0_lv3_f0_c32 phases=1 bus1=hv_f0_lv3_f0_c32.3 pf=0.95 conn=w kv=0.23 kw=1 Vminpu=0.85 Vmaxpu=1.20 model=1 status=variable
new load.hv_f0_lv3_f0_c33 phases=1 bus1=hv_f0_lv3_f0_c33.1 pf=0.95 conn=w kv=0.23 kw=1 Vminpu=0.85 Vmaxpu=1.20 model=1 status=variable
new load.hv_f0_lv3_f0_c34 phases=1 bus1=hv_f0_lv3_f0_c34.2 pf=0.95 conn=w kv=0.23 kw=1 Vminpu=0.85 Vmaxpu=1.20 model=1 status=variable
new load.hv_f0_lv3_f0_c35 phases=1 bus1=hv_f0_lv3_f0_c35.3 pf=0.95 conn=w kv=0.23 kw=1 Vminpu=0.85 Vmaxpu=1.20 model=1 status=variable
new load.hv_f0_lv3_f0_c36 phases=1 bus1=hv_f0_lv3_f0_c36.1 pf=0.95 conn=w kv=0.23 kw=1 Vminpu=0.85 Vmaxpu=1.20 model=1 status=variable
new load.hv_f0_lv3_f0_c37 phases=1 bus1=hv_f0_lv3_f0_c37.2 pf=0.95 conn=w kv=0.23 kw=1 Vminpu=0.85 Vmaxpu=1.20 model=1 status=variable
new load.hv_f0_lv3_f0_c38 phases=1 bus1=hv_f0_lv3_f0_c38.3 pf=0.95 conn=w kv=0.23 kw=1 Vminpu=0.85 Vmaxpu=1.20 model=1 status=variable
new load.hv_f0_lv3_f0_c39 phases=1 bus1=hv_f0_lv3_f0_c39.1 pf=0.95 conn=w kv=0.23 kw=1 Vminpu=0.85 Vmaxpu=1.20 model=1 status=variable
new load.hv_f0_lv3_f1_c0 phases=1 bus1=hv_f0_lv3_f1_c0.1 pf=0.95 conn=w kv=0.23 kw=1 Vminpu=0.85 Vmaxpu=1.20 model=1 status=variable
new load.hv_f0_lv3_f1_c1 phases=1 bus1=hv_f0_lv3_f1_c1.2 pf=0.95 conn=w kv=0.23 kw=1 Vminpu=0.85 Vmaxpu=1.20 model=1 status=variable
new load.hv_f0_lv3_f1_c2 phases=1 bus1=hv_f0_lv3_f1_c2.3 pf=0.95 conn=w kv=0.23 kw=1 Vminpu=0.85 Vmaxpu=1.20 model=1 status=variable
new load.hv_f0_lv3_f1_c3 phases=1 bus1=hv_f0_lv3_f1_c3.1 pf=0.95 conn=w kv=0.23 kw=1 Vminpu=0.85 Vmaxpu=1.20 model=1 status=variable
new load.hv_f0_lv3_f1_c4 phases=1 bus1=hv_f0_lv3_f1_c4.2 pf=0.95 conn=w kv=0.23 kw=1 Vminpu=0.85 Vmaxpu=1.20 model=1 status=variable
new load.hv_f0_lv3_f1_c5 phases=1 bus1=hv_f0_lv3_f1_c5.3 pf=0.95 conn=w kv=0.23 kw=1 Vminpu=0.85 Vmaxpu=1.20 model=1 status=variable
new load.hv_f0_lv3_f1_c6 phases=1 bus1=hv_f0_lv3_f1_c6.1 pf=0.95 conn=w kv=0.23 kw=1 Vminpu=0.85 Vmaxpu=1.20 model=1 status=variable
new load.hv_f0_lv3_f1_c7 phases=1 bus1=hv_f0_lv3_f1_c7.2 pf=0.95 conn=w kv=0.23 kw=1 Vminpu=0.85 Vmaxpu=1.20 model=1 status=variable
new load.hv_f0_lv3_f1_c8 phases=1 bus1=hv_f0_lv3_f1_c8.3 pf=0.95 conn=w kv=0.23 kw=1 Vminpu=0.85 Vmaxpu=1.20 model=1 status=variable
new load.hv_f0_lv3_f1_c9 phases=1 bus1=hv_f0_lv3_f1_c9.1 pf=0.95 conn=w kv=0.23 kw=1 Vminpu=0.85 Vmaxpu=1.20 model=1 status=variable
new load.hv_f0_lv3_f1_c10 phases=1 bus1=hv_f0_lv3_f1_c10.2 pf=0.95 conn=w kv=0.23 kw=1 Vminpu=0.85 Vmaxpu=1.20 model=1 status=variable
new load.hv_f0_lv3_f1_c11 phases=1 bus1=hv_f0_lv3_f1_c11.3 pf=0.95 conn=w kv=0.23 kw=1 Vminpu=0.85 Vmaxpu=1.20 model=1 status=variable
new load.hv_f0_lv3_f1_c12 phases=1 bus1=hv_f0_lv3_f1_c12.1 pf=0.95 conn=w kv=0.23 kw=1 Vminpu=0.85 Vmaxpu=1.20 model=1 status=variable
new load.hv_f0_lv3_f1_c13 phases=1 bus1=hv_f0_lv3_f1_c13.2 pf=0.95 conn=w kv=0.23 kw=1 Vminpu=0.85 Vmaxpu=1.20 model=1 status=variable
new load.hv_f0_lv3_f1_c14 phases=1 bus1=hv_f0_lv3_f1_c14.3 pf=0.95 conn=w kv=0.23 kw=1 Vminpu=0.85 Vmaxpu=1.20 model=1 status=variable
new load.hv_f0_lv3_f1_c15 phases=1 bus1=hv_f0_lv3_f1_c15.1 pf=0.95 conn=w kv=0.23 kw=1 Vminpu=0.85 Vmaxpu=1.20 model=1 status=variable
new load.hv_f0_lv3_f1_c16 phases=1 bus1=hv_f0_lv3_f1_c16.2 pf=0.95 conn=w kv=0.23 kw=1 Vminpu=0.85 Vmaxpu=1.20 model=1 status=variable
new load.hv_f0_lv3_f1_c17 phases=1 bus1=hv_f0_lv3_f1_c17.3 pf=0.95 conn=w kv=0.23 kw=1 Vminpu=0.85 Vmaxpu=1.20 model=1 status=variable
new load.hv_f0_lv3_f1_c18 phases=1 bus1=hv_f0_lv3_f1_c18.1 pf=0.95 conn=w kv=0.23 kw=1 Vminpu=0.85 Vmaxpu=1.20 model=1 status=variable
new load.hv_f0_lv3_f1_c19 phases=1 bus1=hv_f0_lv3_f1_c19.2 pf=0.95 conn=w kv=0.23 kw=1 Vminpu=0.85 Vmaxpu=1.20 model=1 status=variable
new load.hv_f0_lv3_f1_c20 phases=1 bus1=hv_f0_lv3_f1_c20.3 pf=0.95 conn=w kv=0.23 kw=1 Vminpu=0.85 Vmaxpu=1.20 model=1 status=variable
new load.hv_f0_lv3_f1_c21 phases=1 bus1=hv_f0_lv3_f1_c21.1 pf=0.95 conn=w kv=0.23 kw=1 Vminpu=0.85 Vmaxpu=1.20 model=1 status=variable
new load.hv_f0_lv3_f1_c22 phases=1 bus1=hv_f0_lv3_f1_c22.2 pf=0.95 conn=w kv=0.23 kw=1 Vminpu=0.85 Vmaxpu=1.20 model=1 status=variable
new load.hv_f0_lv3_f1_c23 phases=1 bus1=hv_f0_lv3_f1_c23.3 pf=0.95 conn=w kv=0.23 kw=1 Vminpu=0.85 Vmaxpu=1.20 model=1 status=variable
new load.hv_f0_lv3_f1_c24 phases=1 bus1=hv_f0_lv3_f1_c24.1 pf=0.95 conn=w kv=0.23 kw=1 Vminpu=0.85 Vmaxpu=1.20 model=1 status=variable
new load.hv_f0_lv3_f1_c25 phases=1 bus1=hv_f0_lv3_f1_c25.2 pf=0.95 conn=w kv=0.23 kw=1 Vminpu=0.85 Vmaxpu=1.20 model=1 status=variable
new load.hv_f0_lv3_f1_c26 phases=1 bus1=hv_f0_lv3_f1_c26.3 pf=0.95 conn=w kv=0.23 kw=1 Vminpu=0.85 Vmaxpu=1.20 model=1 status=variable
new load.hv_f0_lv3_f1_c27 phases=1 bus1=hv_f0_lv3_f1_c27.1 pf=0.95 conn=w kv=0.23 kw=1 Vminpu=0.85 Vmaxpu=1.20 model=1 status=variable
new load.hv_f0_lv3_f1_c28 phases=1 bus1=hv_f0_lv3_f1_c28.2 pf=0.95 conn=w kv=0.23 kw=1 Vminpu=0.85 Vmaxpu=1.20 model=1 status=variable
new load.hv_f0_lv3_f1_c29 phases=1 bus1=hv_f0_lv3_f1_c29.3 pf=0.95 conn=w kv=0.23 kw=1 Vminpu=0.85 Vmaxpu=1.20 model=1 status=variable
new load.hv_f0_lv3_f1_c30 phases=1 bus1=hv_f0_lv3_f1_c30.1 pf=0.95 conn=w kv=0.23 kw=1 Vminpu=0.85 Vmaxpu=1.20 model=1 status=variable
new load.hv_f0_lv3_f1_c31 phases=1 bus1=hv_f0_lv3_f1_c31.2 pf=0.95 conn=w kv=0.23 kw=1 Vminpu=0.85 Vmaxpu=1.20 model=1 status=variable
new load.hv_f0_lv3_f1_c32 phases=1 bus1=hv_f0_lv3_f1_c32.3 pf=0.95 conn=w kv=0.23 kw=1 Vminpu=0.85 Vmaxpu=1.20 model=1 status=variable
new load.hv_f0_lv3_f1_c33 phases=1 bus1=hv_f0_lv3_f1_c33.1 pf=0.95 conn=w kv=0.23 kw=1 Vminpu=0.85 Vmaxpu=1.20 model=1 status=variable
new load.hv_f0_lv3_f1_c34 phases=1 bus1=hv_f0_lv3_f1_c34.2 pf=0.95 conn=w kv=0.23 kw=1 Vminpu=0.85 Vmaxpu=1.20 model=1 status=variable
new load.hv_f0_lv3_f1_c35 phases=1 bus1=hv_f0_lv3_f1_c35.3 pf=0.95 conn=w kv=0.23 kw=1 Vminpu=0.85 Vmaxpu=1.20 model=1 status=variable
new load.hv_f0_lv3_f1_c36 phases=1 bus1=hv_f0_lv3_f1_c36.1 pf=0.95 conn=w kv=0.23 kw=1 Vminpu=0.85 Vmaxpu=1.20 model=1 status=variable
new load.hv_f0_lv3_f1_c37 phases=1 bus1=hv_f0_lv3_f1_c37.2 pf=0.95 conn=w kv=0.23 kw=1 Vminpu=0.85 Vmaxpu=1.20 model=1 status=variable
new load.hv_f0_lv3_f1_c38 phases=1 bus1=hv_f0_lv3_f1_c38.3 pf=0.95 conn=w kv=0.23 kw=1 Vminpu=0.85 Vmaxpu=1.20 model=1 status=variable
new load.hv_f0_lv3_f1_c39 phases=1 bus1=hv_f0_lv3_f1_c39.1 pf=0.95 conn=w kv=0.23 kw=1 Vminpu=0.85 Vmaxpu=1.20 model=1 status=variable
new load.hv_f0_lv3_f2_c0 phases=1 bus1=hv_f0_lv3_f2_c0.1 pf=0.95 conn=w kv=0.23 kw=1 Vminpu=0.85 Vmaxpu=1.20 model=1 status=variable
new load.hv_f0_lv3_f2_c1 phases=1 bus1=hv_f0_lv3_f2_c1.2 pf=0.95 conn=w kv=0.23 kw=1 Vminpu=0.85 Vmaxpu=1.20 model=1 status=variable
new load.hv_f0_lv3_f2_c2 phases=1 bus1=hv_f0_lv3_f2_c2.3 pf=0.95 conn=w kv=0.23 kw=1 Vminpu=0.85 Vmaxpu=1.20 model=1 status=variable
new load.hv_f0_lv3_f2_c3 phases=1 bus1=hv_f0_lv3_f2_c3.1 pf=0.95 conn=w kv=0.23 kw=1 Vminpu=0.85 Vmaxpu=1.20 model=1 status=variable
new load.hv_f0_lv3_f2_c4 phases=1 bus1=hv_f0_lv3_f2_c4.2 pf=0.95 conn=w kv=0.23 kw=1 Vminpu=0.85 Vmaxpu=1.20 model=1 status=variable
new load.hv_f0_lv3_f2_c5 phases=1 bus1=hv_f0_lv3_f2_c5.3 pf=0.95 conn=w kv=0.23 kw=1 Vminpu=0.85 Vmaxpu=1.20 model=1 status=variable
new load.hv_f0_lv3_f2_c6 phases=1 bus1=hv_f0_lv3_f2_c6.1 pf=0.95 conn=w kv=0.23 kw=1 Vminpu=0.85 Vmaxpu=1.20 model=1 status=variable
new load.hv_f0_lv3_f2_c7 phases=1 bus1=hv_f0_lv3_f2_c7.2 pf=0.95 conn=w kv=0.23 kw=1 Vminpu=0.85 Vmaxpu=1.20 model=1 status=variable
new load.hv_f0_lv3_f2_c8 phases=1 bus1=hv_f0_lv3_f2_c8.3 pf=0.95 conn=w kv=0.23 kw=1 Vminpu=0.85 Vmaxpu=1.20 model=1 status=variable
new load.hv_f0_lv3_f2_c9 phases=1 bus1=hv_f0_lv3_f2_c9.1 pf=0.95 conn=w kv=0.23 kw=1 Vminpu=0.85 Vmaxpu=1.20 model=1 status=variable
new load.hv_f0_lv3_f2_c10 phases=1 bus1=hv_f0_lv3_f2_c10.2 pf=0.95 conn=w kv=0.23 kw=1 Vminpu=0.85 Vmaxpu=1.20 model=1 status=variable
new load.hv_f0_lv3_f2_c11 phases=1 bus1=hv_f0_lv3_f2_c11.3 pf=0.95 conn=w kv=0.23 kw=1 Vminpu=0.85 Vmaxpu=1.20 model=1 status=variable
new load.hv_f0_lv3_f2_c12 phases=1 bus1=hv_f0_lv3_f2_c12.1 pf=0.95 conn=w kv=0.23 kw=1 Vminpu=0.85 Vmaxpu=1.20 model=1 status=variable
new load.hv_f0_lv3_f2_c13 phases=1 bus1=hv_f0_lv3_f2_c13.2 pf=0.95 conn=w kv=0.23 kw=1 Vminpu=0.85 Vmaxpu=1.20 model=1 status=variable
new load.hv_f0_lv3_f2_c14 phases=1 bus1=hv_f0_lv3_f2_c14.3 pf=0.95 conn=w kv=0.23 kw=1 Vminpu=0.85 Vmaxpu=1.20 model=1 status=variable
new load.hv_f0_lv3_f2_c15 phases=1 bus1=hv_f0_lv3_f2_c15.1 pf=0.95 conn=w kv=0.23 kw=1 Vminpu=0.85 Vmaxpu=1.20 model=1 status=variable
new load.hv_f0_lv3_f2_c16 phases=1 bus1=hv_f0_lv3_f2_c16.2 pf=0.95 conn=w kv=0.23 kw=1 Vminpu=0.85 Vmaxpu=1.20 model=1 status=variable
new load.hv_f0_lv3_f2_c17 phases=1 bus1=hv_f0_lv3_f2_c17.3 pf=0.95 conn=w kv=0.23 kw=1 Vminpu=0.85 Vmaxpu=1.20 model=1 status=variable
new load.hv_f0_lv3_f2_c18 phases=1 bus1=hv_f0_lv3_f2_c18.1 pf=0.95 conn=w kv=0.23 kw=1 Vminpu=0.85 Vmaxpu=1.20 model=1 status=variable
new load.hv_f0_lv3_f2_c19 phases=1 bus1=hv_f0_lv3_f2_c19.2 pf=0.95 conn=w kv=0.23 kw=1 Vminpu=0.85 Vmaxpu=1.20 model=1 status=variable
new load.hv_f0_lv3_f2_c20 phases=1 bus1=hv_f0_lv3_f2_c20.3 pf=0.95 conn=w kv=0.23 kw=1 Vminpu=0.85 Vmaxpu=1.20 model=1 status=variable
new load.hv_f0_lv3_f2_c21 phases=1 bus1=hv_f0_lv3_f2_c21.1 pf=0.95 conn=w kv=0.23 kw=1 Vminpu=0.85 Vmaxpu=1.20 model=1 status=variable
new load.hv_f0_lv3_f2_c22 phases=1 bus1=hv_f0_lv3_f2_c22.2 pf=0.95 conn=w kv=0.23 kw=1 Vminpu=0.85 Vmaxpu=1.20 model=1 status=variable
new load.hv_f0_lv3_f2_c23 phases=1 bus1=hv_f0_lv3_f2_c23.3 pf=0.95 conn=w kv=0.23 kw=1 Vminpu=0.85 Vmaxpu=1.20 model=1 status=variable
new load.hv_f0_lv3_f2_c24 phases=1 bus1=hv_f0_lv3_f2_c24.1 pf=0.95 conn=w kv=0.23 kw=1 Vminpu=0.85 Vmaxpu=1.20 model=1 status=variable
new load.hv_f0_lv3_f2_c25 phases=1 bus1=hv_f0_lv3_f2_c25.2 pf=0.95 conn=w kv=0.23 kw=1 Vminpu=0.85 Vmaxpu=1.20 model=1 status=variable
new load.hv_f0_lv3_f2_c26 phases=1 bus1=hv_f0_lv3_f2_c26.3 pf=0.95 conn=w kv=0.23 kw=1 Vminpu=0.85 Vmaxpu=1.20 model=1 status=variable
new load.hv_f0_lv3_f2_c27 phases=1 bus1=hv_f0_lv3_f2_c27.1 pf=0.95 conn=w kv=0.23 kw=1 Vminpu=0.85 Vmaxpu=1.20 model=1 status=variable
new load.hv_f0_lv3_f2_c28 phases=1 bus1=hv_f0_lv3_f2_c28.2 pf=0.95 conn=w kv=0.23 kw=1 Vminpu=0.85 Vmaxpu=1.20 model=1 status=variable
new load.hv_f0_lv3_f2_c29 phases=1 bus1=hv_f0_lv3_f2_c29.3 pf=0.95 conn=w kv=0.23 kw=1 Vminpu=0.85 Vmaxpu=1.20 model=1 status=variable
new load.hv_f0_lv3_f2_c30 phases=1 bus1=hv_f0_lv3_f2_c30.1 pf=0.95 conn=w kv=0.23 kw=1 Vminpu=0.85 Vmaxpu=1.20 model=1 status=variable
new load.hv_f0_lv3_f2_c31 phases=1 bus1=hv_f0_lv3_f2_c31.2 pf=0.95 conn=w kv=0.23 kw=1 Vminpu=0.85 Vmaxpu=1.20 model=1 status=variable
new load.hv_f0_lv3_f2_c32 phases=1 bus1=hv_f0_lv3_f2_c32.3 pf=0.95 conn=w kv=0.23 kw=1 Vminpu=0.85 Vmaxpu=1.20 model=1 status=variable
new load.hv_f0_lv3_f2_c33 phases=1 bus1=hv_f0_lv3_f2_c33.1 pf=0.95 conn=w kv=0.23 kw=1 Vminpu=0.85 Vmaxpu=1.20 model=1 status=variable
new load.hv_f0_lv3_f2_c34 phases=1 bus1=hv_f0_lv3_f2_c34.2 pf=0.95 conn=w kv=0.23 kw=1 Vminpu=0.85 Vmaxpu=1.20 model=1 status=variable
new load.hv_f0_lv3_f2_c35 phases=1 bus1=hv_f0_lv3_f2_c35.3 pf=0.95 conn=w kv=0.23 kw=1 Vminpu=0.85 Vmaxpu=1.20 model=1 status=variable
new load.hv_f0_lv3_f2_c36 phases=1 bus1=hv_f0_lv3_f2_c36.1 pf=0.95 conn=w kv=0.23 kw=1 Vminpu=0.85 Vmaxpu=1.20 model=1 status=variable
new load.hv_f0_lv3_f2_c37 phases=1 bus1=hv_f0_lv3_f2_c37.2 pf=0.95 conn=w kv=0.23 kw=1 Vminpu=0.85 Vmaxpu=1.20 model=1 status=variable
new load.hv_f0_lv3_f2_c38 phases=1 bus1=hv_f0_lv3_f2_c38.3 pf=0.95 conn=w kv=0.23 kw=1 Vminpu=0.85 Vmaxpu=1.20 model=1 status=variable
new load.hv_f0_lv3_f2_c39 phases=1 bus1=hv_f0_lv3_f2_c39.1 pf=0.95 conn=w kv=0.23 kw=1 Vminpu=0.85 Vmaxpu=1.20 model=1 status=variable
new load.hv_f0_lv3_f3_c0 phases=1 bus1=hv_f0_lv3_f3_c0.1 pf=0.95 conn=w kv=0.23 kw=1 Vminpu=0.85 Vmaxpu=1.20 model=1 status=variable
new load.hv_f0_lv3_f3_c1 phases=1 bus1=hv_f0_lv3_f3_c1.2 pf=0.95 conn=w kv=0.23 kw=1 Vminpu=0.85 Vmaxpu=1.20 model=1 status=variable
new load.hv_f0_lv3_f3_c2 phases=1 bus1=hv_f0_lv3_f3_c2.3 pf=0.95 conn=w kv=0.23 kw=1 Vminpu=0.85 Vmaxpu=1.20 model=1 status=variable
new load.hv_f0_lv3_f3_c3 phases=1 bus1=hv_f0_lv3_f3_c3.1 pf=0.95 conn=w kv=0.23 kw=1 Vminpu=0.85 Vmaxpu=1.20 model=1 status=variable
new load.hv_f0_lv3_f3_c4 phases=1 bus1=hv_f0_lv3_f3_c4.2 pf=0.95 conn=w kv=0.23 kw=1 Vminpu=0.85 Vmaxpu=1.20 model=1 status=variable
new load.hv_f0_lv4_f0_c0 phases=1 bus1=hv_f0_lv4_f0_c0.1 pf=0.95 conn=w kv=0.23 kw=1 Vminpu=0.85 Vmaxpu=1.20 model=1 status=variable
new load.hv_f0_lv5_f0_c0 phases=3 bus1=hv_f0_lv5_Busbar.1.2.3 pf=0.95 conn=w kv=0.4 kw=1 Vminpu=0.85 Vmaxpu=1.20 model=1 status=variable
new load.hv_f0_lv6_f0_c0 phases=3 bus1=hv_f0_lv6_Busbar.1.2.3 pf=0.95 conn=w kv=0.4 kw=1 Vminpu=0.85 Vmaxpu=1.20 model=1 status=variable
new load.hv_f0_lv7_f0_c0 phases=1 bus1=hv_f0_lv7_f0_c0.1 pf=0.95 conn=w kv=0.23 kw=1 Vminpu=0.85 Vmaxpu=1.20 model=1 status=variable
new load.hv_f0_lv7_f0_c1 phases=1 bus1=hv_f0_lv7_f0_c1.2 pf=0.95 conn=w kv=0.23 kw=1 Vminpu=0.85 Vmaxpu=1.20 model=1 status=variable
new load.hv_f0_lv7_f0_c2 phases=1 bus1=hv_f0_lv7_f0_c2.3 pf=0.95 conn=w kv=0.23 kw=1 Vminpu=0.85 Vmaxpu=1.20 model=1 status=variable
new load.hv_f0_lv7_f0_c3 phases=1 bus1=hv_f0_lv7_f0_c3.1 pf=0.95 conn=w kv=0.23 kw=1 Vminpu=0.85 Vmaxpu=1.20 model=1 status=variable
new load.hv_f0_lv7_f0_c4 phases=1 bus1=hv_f0_lv7_f0_c4.2 pf=0.95 conn=w kv=0.23 kw=1 Vminpu=0.85 Vmaxpu=1.20 model=1 status=variable
new load.hv_f0_lv7_f0_c5 phases=1 bus1=hv_f0_lv7_f0_c5.3 pf=0.95 conn=w kv=0.23 kw=1 Vminpu=0.85 Vmaxpu=1.20 model=1 status=variable
new load.hv_f0_lv7_f0_c6 phases=1 bus1=hv_f0_lv7_f0_c6.1 pf=0.95 conn=w kv=0.23 kw=1 Vminpu=0.85 Vmaxpu=1.20 model=1 status=variable
new load.hv_f0_lv7_f0_c7 phases=1 bus1=hv_f0_lv7_f0_c7.2 pf=0.95 conn=w kv=0.23 kw=1 Vminpu=0.85 Vmaxpu=1.20 model=1 status=variable
new load.hv_f0_lv7_f0_c8 phases=1 bus1=hv_f0_lv7_f0_c8.3 pf=0.95 conn=w kv=0.23 kw=1 Vminpu=0.85 Vmaxpu=1.20 model=1 status=variable
new load.hv_f0_lv7_f0_c9 phases=1 bus1=hv_f0_lv7_f0_c9.1 pf=0.95 conn=w kv=0.23 kw=1 Vminpu=0.85 Vmaxpu=1.20 model=1 status=variable
new load.hv_f0_lv7_f0_c10 phases=1 bus1=hv_f0_lv7_f0_c10.2 pf=0.95 conn=w kv=0.23 kw=1 Vminpu=0.85 Vmaxpu=1.20 model=1 status=variable
new load.hv_f0_lv7_f0_c11 phases=1 bus1=hv_f0_lv7_f0_c11.3 pf=0.95 conn=w kv=0.23 kw=1 Vminpu=0.85 Vmaxpu=1.20 model=1 status=variable
new load.hv_f0_lv7_f0_c12 phases=1 bus1=hv_f0_lv7_f0_c12.1 pf=0.95 conn=w kv=0.23 kw=1 Vminpu=0.85 Vmaxpu=1.20 model=1 status=variable
new load.hv_f0_lv7_f0_c13 phases=1 bus1=hv_f0_lv7_f0_c13.2 pf=0.95 conn=w kv=0.23 kw=1 Vminpu=0.85 Vmaxpu=1.20 model=1 status=variable
new load.hv_f0_lv7_f0_c14 phases=1 bus1=hv_f0_lv7_f0_c14.3 pf=0.95 conn=w kv=0.23 kw=1 Vminpu=0.85 Vmaxpu=1.20 model=1 status=variable
new load.hv_f0_lv7_f0_c15 phases=1 bus1=hv_f0_lv7_f0_c15.1 pf=0.95 conn=w kv=0.23 kw=1 Vminpu=0.85 Vmaxpu=1.20 model=1 status=variable
new load.hv_f0_lv7_f0_c16 phases=1 bus1=hv_f0_lv7_f0_c16.2 pf=0.95 conn=w kv=0.23 kw=1 Vminpu=0.85 Vmaxpu=1.20 model=1 status=variable
new load.hv_f0_lv7_f0_c17 phases=1 bus1=hv_f0_lv7_f0_c17.3 pf=0.95 conn=w kv=0.23 kw=1 Vminpu=0.85 Vmaxpu=1.20 model=1 status=variable
new load.hv_f0_lv7_f0_c18 phases=1 bus1=hv_f0_lv7_f0_c18.1 pf=0.95 conn=w kv=0.23 kw=1 Vminpu=0.85 Vmaxpu=1.20 model=1 status=variable
new load.hv_f0_lv7_f0_c19 phases=1 bus1=hv_f0_lv7_f0_c19.2 pf=0.95 conn=w kv=0.23 kw=1 Vminpu=0.85 Vmaxpu=1.20 model=1 status=variable
new load.hv_f0_lv7_f0_c20 phases=1 bus1=hv_f0_lv7_f0_c20.3 pf=0.95 conn=w kv=0.23 kw=1 Vminpu=0.85 Vmaxpu=1.20 model=1 status=variable
new load.hv_f0_lv7_f0_c21 phases=1 bus1=hv_f0_lv7_f0_c21.1 pf=0.95 conn=w kv=0.23 kw=1 Vminpu=0.85 Vmaxpu=1.20 model=1 status=variable
new load.hv_f0_lv7_f0_c22 phases=1 bus1=hv_f0_lv7_f0_c22.2 pf=0.95 conn=w kv=0.23 kw=1 Vminpu=0.85 Vmaxpu=1.20 model=1 status=variable
new load.hv_f0_lv7_f0_c23 phases=1 bus1=hv_f0_lv7_f0_c23.3 pf=0.95 conn=w kv=0.23 kw=1 Vminpu=0.85 Vmaxpu=1.20 model=1 status=variable
new load.hv_f0_lv7_f0_c24 phases=1 bus1=hv_f0_lv7_f0_c24.1 pf=0.95 conn=w kv=0.23 kw=1 Vminpu=0.85 Vmaxpu=1.20 model=1 status=variable
new load.hv_f0_lv7_f0_c25 phases=1 bus1=hv_f0_lv7_f0_c25.2 pf=0.95 conn=w kv=0.23 kw=1 Vminpu=0.85 Vmaxpu=1.20 model=1 status=variable
new load.hv_f0_lv7_f0_c26 phases=1 bus1=hv_f0_lv7_f0_c26.3 pf=0.95 conn=w kv=0.23 kw=1 Vminpu=0.85 Vmaxpu=1.20 model=1 status=variable
new load.hv_f0_lv7_f0_c27 phases=1 bus1=hv_f0_lv7_f0_c27.1 pf=0.95 conn=w kv=0.23 kw=1 Vminpu=0.85 Vmaxpu=1.20 model=1 status=variable
new load.hv_f0_lv7_f0_c28 phases=1 bus1=hv_f0_lv7_f0_c28.2 pf=0.95 conn=w kv=0.23 kw=1 Vminpu=0.85 Vmaxpu=1.20 model=1 status=variable
new load.hv_f0_lv7_f0_c29 phases=1 bus1=hv_f0_lv7_f0_c29.3 pf=0.95 conn=w kv=0.23 kw=1 Vminpu=0.85 Vmaxpu=1.20 model=1 status=variable
new load.hv_f0_lv7_f0_c30 phases=1 bus1=hv_f0_lv7_f0_c30.1 pf=0.95 conn=w kv=0.23 kw=1 Vminpu=0.85 Vmaxpu=1.20 model=1 status=variable
new load.hv_f0_lv7_f0_c31 phases=1 bus1=hv_f0_lv7_f0_c31.2 pf=0.95 conn=w kv=0.23 kw=1 Vminpu=0.85 Vmaxpu=1.20 model=1 status=variable
new load.hv_f0_lv7_f0_c32 phases=1 bus1=hv_f0_lv7_f0_c32.3 pf=0.95 conn=w kv=0.23 kw=1 Vminpu=0.85 Vmaxpu=1.20 model=1 status=variable
new load.hv_f0_lv7_f0_c33 phases=1 bus1=hv_f0_lv7_f0_c33.1 pf=0.95 conn=w kv=0.23 kw=1 Vminpu=0.85 Vmaxpu=1.20 model=1 status=variable
new load.hv_f0_lv7_f0_c34 phases=1 bus1=hv_f0_lv7_f0_c34.2 pf=0.95 conn=w kv=0.23 kw=1 Vminpu=0.85 Vmaxpu=1.20 model=1 status=variable
new load.hv_f0_lv7_f0_c35 phases=1 bus1=hv_f0_lv7_f0_c35.3 pf=0.95 conn=w kv=0.23 kw=1 Vminpu=0.85 Vmaxpu=1.20 model=1 status=variable
new load.hv_f0_lv7_f0_c36 phases=1 bus1=hv_f0_lv7_f0_c36.1 pf=0.95 conn=w kv=0.23 kw=1 Vminpu=0.85 Vmaxpu=1.20 model=1 status=variable
new load.hv_f0_lv7_f0_c37 phases=1 bus1=hv_f0_lv7_f0_c37.2 pf=0.95 conn=w kv=0.23 kw=1 Vminpu=0.85 Vmaxpu=1.20 model=1 status=variable
new load.hv_f0_lv7_f0_c38 phases=1 bus1=hv_f0_lv7_f0_c38.3 pf=0.95 conn=w kv=0.23 kw=1 Vminpu=0.85 Vmaxpu=1.20 model=1 status=variable
new load.hv_f0_lv7_f0_c39 phases=1 bus1=hv_f0_lv7_f0_c39.1 pf=0.95 conn=w kv=0.23 kw=1 Vminpu=0.85 Vmaxpu=1.20 model=1 status=variable
new load.hv_f0_lv7_f1_c0 phases=1 bus1=hv_f0_lv7_f1_c0.1 pf=0.95 conn=w kv=0.23 kw=1 Vminpu=0.85 Vmaxpu=1.20 model=1 status=variable
new load.hv_f0_lv7_f1_c1 phases=1 bus1=hv_f0_lv7_f1_c1.2 pf=0.95 conn=w kv=0.23 kw=1 Vminpu=0.85 Vmaxpu=1.20 model=1 status=variable
new load.hv_f0_lv7_f1_c2 phases=1 bus1=hv_f0_lv7_f1_c2.3 pf=0.95 conn=w kv=0.23 kw=1 Vminpu=0.85 Vmaxpu=1.20 model=1 status=variable
new load.hv_f0_lv7_f1_c3 phases=1 bus1=hv_f0_lv7_f1_c3.1 pf=0.95 conn=w kv=0.23 kw=1 Vminpu=0.85 Vmaxpu=1.20 model=1 status=variable
new load.hv_f0_lv7_f1_c4 phases=1 bus1=hv_f0_lv7_f1_c4.2 pf=0.95 conn=w kv=0.23 kw=1 Vminpu=0.85 Vmaxpu=1.20 model=1 status=variable
new load.hv_f0_lv7_f1_c5 phases=1 bus1=hv_f0_lv7_f1_c5.3 pf=0.95 conn=w kv=0.23 kw=1 Vminpu=0.85 Vmaxpu=1.20 model=1 status=variable
new load.hv_f0_lv7_f1_c6 phases=1 bus1=hv_f0_lv7_f1_c6.1 pf=0.95 conn=w kv=0.23 kw=1 Vminpu=0.85 Vmaxpu=1.20 model=1 status=variable
new load.hv_f0_lv7_f1_c7 phases=1 bus1=hv_f0_lv7_f1_c7.2 pf=0.95 conn=w kv=0.23 kw=1 Vminpu=0.85 Vmaxpu=1.20 model=1 status=variable
new load.hv_f0_lv7_f1_c8 phases=1 bus1=hv_f0_lv7_f1_c8.3 pf=0.95 conn=w kv=0.23 kw=1 Vminpu=0.85 Vmaxpu=1.20 model=1 status=variable
new load.hv_f0_lv7_f1_c9 phases=1 bus1=hv_f0_lv7_f1_c9.1 pf=0.95 conn=w kv=0.23 kw=1 Vminpu=0.85 Vmaxpu=1.20 model=1 status=variable
new load.hv_f0_lv7_f1_c10 phases=1 bus1=hv_f0_lv7_f1_c10.2 pf=0.95 conn=w kv=0.23 kw=1 Vminpu=0.85 Vmaxpu=1.20 model=1 status=variable
new load.hv_f0_lv7_f1_c11 phases=1 bus1=hv_f0_lv7_f1_c11.3 pf=0.95 conn=w kv=0.23 kw=1 Vminpu=0.85 Vmaxpu=1.20 model=1 status=variable
new load.hv_f0_lv7_f1_c12 phases=1 bus1=hv_f0_lv7_f1_c12.1 pf=0.95 conn=w kv=0.23 kw=1 Vminpu=0.85 Vmaxpu=1.20 model=1 status=variable
new load.hv_f0_lv7_f1_c13 phases=1 bus1=hv_f0_lv7_f1_c13.2 pf=0.95 conn=w kv=0.23 kw=1 Vminpu=0.85 Vmaxpu=1.20 model=1 status=variable
new load.hv_f0_lv7_f1_c14 phases=1 bus1=hv_f0_lv7_f1_c14.3 pf=0.95 conn=w kv=0.23 kw=1 Vminpu=0.85 Vmaxpu=1.20 model=1 status=variable
new load.hv_f0_lv7_f1_c15 phases=1 bus1=hv_f0_lv7_f1_c15.1 pf=0.95 conn=w kv=0.23 kw=1 Vminpu=0.85 Vmaxpu=1.20 model=1 status=variable
new load.hv_f0_lv7_f1_c16 phases=1 bus1=hv_f0_lv7_f1_c16.2 pf=0.95 conn=w kv=0.23 kw=1 Vminpu=0.85 Vmaxpu=1.20 model=1 status=variable
new load.hv_f0_lv7_f1_c17 phases=1 bus1=hv_f0_lv7_f1_c17.3 pf=0.95 conn=w kv=0.23 kw=1 Vminpu=0.85 Vmaxpu=1.20 model=1 status=variable
new load.hv_f0_lv7_f1_c18 phases=1 bus1=hv_f0_lv7_f1_c18.1 pf=0.95 conn=w kv=0.23 kw=1 Vminpu=0.85 Vmaxpu=1.20 model=1 status=variable
new load.hv_f0_lv7_f1_c19 phases=1 bus1=hv_f0_lv7_f1_c19.2 pf=0.95 conn=w kv=0.23 kw=1 Vminpu=0.85 Vmaxpu=1.20 model=1 status=variable
new load.hv_f0_lv7_f1_c20 phases=1 bus1=hv_f0_lv7_f1_c20.3 pf=0.95 conn=w kv=0.23 kw=1 Vminpu=0.85 Vmaxpu=1.20 model=1 status=variable
new load.hv_f0_lv7_f1_c21 phases=1 bus1=hv_f0_lv7_f1_c21.1 pf=0.95 conn=w kv=0.23 kw=1 Vminpu=0.85 Vmaxpu=1.20 model=1 status=variable
new load.hv_f0_lv7_f1_c22 phases=1 bus1=hv_f0_lv7_f1_c22.2 pf=0.95 conn=w kv=0.23 kw=1 Vminpu=0.85 Vmaxpu=1.20 model=1 status=variable
new load.hv_f0_lv7_f1_c23 phases=1 bus1=hv_f0_lv7_f1_c23.3 pf=0.95 conn=w kv=0.23 kw=1 Vminpu=0.85 Vmaxpu=1.20 model=1 status=variable
new load.hv_f0_lv7_f1_c24 phases=1 bus1=hv_f0_lv7_f1_c24.1 pf=0.95 conn=w kv=0.23 kw=1 Vminpu=0.85 Vmaxpu=1.20 model=1 status=variable
new load.hv_f0_lv7_f1_c25 phases=1 bus1=hv_f0_lv7_f1_c25.2 pf=0.95 conn=w kv=0.23 kw=1 Vminpu=0.85 Vmaxpu=1.20 model=1 status=variable
new load.hv_f0_lv7_f1_c26 phases=1 bus1=hv_f0_lv7_f1_c26.3 pf=0.95 conn=w kv=0.23 kw=1 Vminpu=0.85 Vmaxpu=1.20 model=1 status=variable
new load.hv_f0_lv7_f1_c27 phases=1 bus1=hv_f0_lv7_f1_c27.1 pf=0.95 conn=w kv=0.23 kw=1 Vminpu=0.85 Vmaxpu=1.20 model=1 status=variable
new load.hv_f0_lv7_f1_c28 phases=1 bus1=hv_f0_lv7_f1_c28.2 pf=0.95 conn=w kv=0.23 kw=1 Vminpu=0.85 Vmaxpu=1.20 model=1 status=variable
new load.hv_f0_lv7_f1_c29 phases=1 bus1=hv_f0_lv7_f1_c29.3 pf=0.95 conn=w kv=0.23 kw=1 Vminpu=0.85 Vmaxpu=1.20 model=1 status=variable
new load.hv_f0_lv7_f1_c30 phases=1 bus1=hv_f0_lv7_f1_c30.1 pf=0.95 conn=w kv=0.23 kw=1 Vminpu=0.85 Vmaxpu=1.20 model=1 status=variable